data_image0
_cell_length_a       29.324
_cell_length_b       21.2972
_cell_length_c       18.0688
_cell_angle_alpha    90
_cell_angle_beta     107.49
_cell_angle_gamma    90

_symmetry_space_group_name_H-M    "P 1"
_symmetry_int_tables_number       1

loop_
  _symmetry_equiv_pos_as_xyz
  'x, y, z'

loop_
  _atom_site_label
  _atom_site_occupancy
  _atom_site_fract_x
  _atom_site_fract_y
  _atom_site_fract_z
  _atom_site_thermal_displace_type
  _atom_site_B_iso_or_equiv
  _atom_site_type_symbol
  Cu1      1.0000 0.73173  0.20163  0.95530  Biso   1.000  Cu
  Cu2      1.0000 0.23173  0.70163  0.95530  Biso   1.000  Cu
  Cu3      1.0000 0.73173  0.79837  0.45530  Biso   1.000  Cu
  Cu4      1.0000 0.23173  0.29837  0.45530  Biso   1.000  Cu
  Cu5      1.0000 0.26827  0.79837  0.04470  Biso   1.000  Cu
  Cu6      1.0000 0.76827  0.29837  0.04470  Biso   1.000  Cu
  Cu7      1.0000 0.26827  0.20163  0.54470  Biso   1.000  Cu
  Cu8      1.0000 0.76827  0.70163  0.54470  Biso   1.000  Cu
  Cu9      1.0000 0.75297  0.19161  0.52494  Biso   1.000  Cu
  Cu10     1.0000 0.25297  0.69161  0.52494  Biso   1.000  Cu
  Cu11     1.0000 0.75297  0.80839  0.02494  Biso   1.000  Cu
  Cu12     1.0000 0.25297  0.30839  0.02494  Biso   1.000  Cu
  Cu13     1.0000 0.24703  0.80839  0.47506  Biso   1.000  Cu
  Cu14     1.0000 0.74703  0.30839  0.47506  Biso   1.000  Cu
  Cu15     1.0000 0.24703  0.19161  0.97506  Biso   1.000  Cu
  Cu16     1.0000 0.74703  0.69161  0.97506  Biso   1.000  Cu
  Cu17     1.0000 0.46664  0.51390  0.93567  Biso   1.000  Cu
  Cu18     1.0000 0.96664  0.01390  0.93567  Biso   1.000  Cu
  Cu19     1.0000 0.46664  0.48610  0.43567  Biso   1.000  Cu
  Cu20     1.0000 0.96664  0.98610  0.43567  Biso   1.000  Cu
  Cu21     1.0000 0.53336  0.48610  0.06433  Biso   1.000  Cu
  Cu22     1.0000 0.03336  0.98610  0.06433  Biso   1.000  Cu
  Cu23     1.0000 0.53336  0.51390  0.56433  Biso   1.000  Cu
  Cu24     1.0000 0.03336  0.01390  0.56433  Biso   1.000  Cu
  Br1      1.0000 0.88256  0.37632  0.66301  Biso   1.000  Br
  Br2      1.0000 0.38256  0.87632  0.66301  Biso   1.000  Br
  Br3      1.0000 0.88256  0.62368  0.16301  Biso   1.000  Br
  Br4      1.0000 0.38256  0.12368  0.16301  Biso   1.000  Br
  Br5      1.0000 0.11744  0.62368  0.33699  Biso   1.000  Br
  Br6      1.0000 0.61744  0.12368  0.33699  Biso   1.000  Br
  Br7      1.0000 0.11744  0.37632  0.83699  Biso   1.000  Br
  Br8      1.0000 0.61744  0.87632  0.83699  Biso   1.000  Br
  Br9      1.0000 0.89880  0.36530  0.96860  Biso   1.000  Br
  Br10     1.0000 0.39880  0.86530  0.96860  Biso   1.000  Br
  Br11     1.0000 0.89880  0.63470  0.46860  Biso   1.000  Br
  Br12     1.0000 0.39880  0.13470  0.46860  Biso   1.000  Br
  Br13     1.0000 0.10120  0.63470  0.03140  Biso   1.000  Br
  Br14     1.0000 0.60120  0.13470  0.03140  Biso   1.000  Br
  Br15     1.0000 0.10120  0.36530  0.53140  Biso   1.000  Br
  Br16     1.0000 0.60120  0.86530  0.53140  Biso   1.000  Br
  Br17     1.0000 0.85420  0.20630  0.27650  Biso   1.000  Br
  Br18     1.0000 0.35420  0.70630  0.27650  Biso   1.000  Br
  Br19     1.0000 0.85420  0.79370  0.77650  Biso   1.000  Br
  Br20     1.0000 0.35420  0.29370  0.77650  Biso   1.000  Br
  Br21     1.0000 0.14580  0.79370  0.72350  Biso   1.000  Br
  Br22     1.0000 0.64580  0.29370  0.72350  Biso   1.000  Br
  Br23     1.0000 0.14580  0.20630  0.22350  Biso   1.000  Br
  Br24     1.0000 0.64580  0.70630  0.22350  Biso   1.000  Br
  Br25     1.0000 0.67700  0.34140  0.74640  Biso   1.000  Br
  Br26     1.0000 0.17700  0.84140  0.74640  Biso   1.000  Br
  Br27     1.0000 0.67700  0.65860  0.24640  Biso   1.000  Br
  Br28     1.0000 0.17700  0.15860  0.24640  Biso   1.000  Br
  Br29     1.0000 0.32300  0.65860  0.25360  Biso   1.000  Br
  Br30     1.0000 0.82300  0.15860  0.25360  Biso   1.000  Br
  Br31     1.0000 0.32300  0.34140  0.75360  Biso   1.000  Br
  Br32     1.0000 0.82300  0.84140  0.75360  Biso   1.000  Br
  Br33     1.0000 0.45987  0.27800  0.51010  Biso   1.000  Br
  Br34     1.0000 0.95987  0.77800  0.51010  Biso   1.000  Br
  Br35     1.0000 0.45987  0.72200  0.01010  Biso   1.000  Br
  Br36     1.0000 0.95987  0.22200  0.01010  Biso   1.000  Br
  Br37     1.0000 0.54013  0.72200  0.48990  Biso   1.000  Br
  Br38     1.0000 0.04013  0.22200  0.48990  Biso   1.000  Br
  Br39     1.0000 0.54013  0.27800  0.98990  Biso   1.000  Br
  Br40     1.0000 0.04013  0.77800  0.98990  Biso   1.000  Br
  Br41     1.0000 0.89950  0.37790  0.49400  Biso   1.000  Br
  Br42     1.0000 0.39950  0.87790  0.49400  Biso   1.000  Br
  Br43     1.0000 0.89950  0.62210  0.99400  Biso   1.000  Br
  Br44     1.0000 0.39950  0.12210  0.99400  Biso   1.000  Br
  Br45     1.0000 0.10050  0.62210  0.50600  Biso   1.000  Br
  Br46     1.0000 0.60050  0.12210  0.50600  Biso   1.000  Br
  Br47     1.0000 0.10050  0.37790  0.00600  Biso   1.000  Br
  Br48     1.0000 0.60050  0.87790  0.00600  Biso   1.000  Br
  O1       1.0000 0.77130  0.23470  0.89400  Biso   1.000  O
  O2       1.0000 0.27130  0.73470  0.89400  Biso   1.000  O
  O3       1.0000 0.77130  0.76530  0.39400  Biso   1.000  O
  O4       1.0000 0.27130  0.26530  0.39400  Biso   1.000  O
  O5       1.0000 0.22870  0.76530  0.10600  Biso   1.000  O
  O6       1.0000 0.72870  0.26530  0.10600  Biso   1.000  O
  O7       1.0000 0.22870  0.23470  0.60600  Biso   1.000  O
  O8       1.0000 0.72870  0.73470  0.60600  Biso   1.000  O
  O9       1.0000 0.80350  0.31560  0.96950  Biso   1.000  O
  O10      1.0000 0.30350  0.81560  0.96950  Biso   1.000  O
  O11      1.0000 0.80350  0.68440  0.46950  Biso   1.000  O
  O12      1.0000 0.30350  0.18440  0.46950  Biso   1.000  O
  O13      1.0000 0.19650  0.68440  0.03050  Biso   1.000  O
  O14      1.0000 0.69650  0.18440  0.03050  Biso   1.000  O
  O15      1.0000 0.19650  0.31560  0.53050  Biso   1.000  O
  O16      1.0000 0.69650  0.81560  0.53050  Biso   1.000  O
  O17      1.0000 0.78230  0.23240  0.62660  Biso   1.000  O
  O18      1.0000 0.28230  0.73240  0.62660  Biso   1.000  O
  O19      1.0000 0.78230  0.76760  0.12660  Biso   1.000  O
  O20      1.0000 0.28230  0.26760  0.12660  Biso   1.000  O
  O21      1.0000 0.21770  0.76760  0.37340  Biso   1.000  O
  O22      1.0000 0.71770  0.26760  0.37340  Biso   1.000  O
  O23      1.0000 0.21770  0.23240  0.87340  Biso   1.000  O
  O24      1.0000 0.71770  0.73240  0.87340  Biso   1.000  O
  O25      1.0000 0.51040  0.48320  0.88250  Biso   1.000  O
  O26      1.0000 0.01040  0.98320  0.88250  Biso   1.000  O
  O27      1.0000 0.51040  0.51680  0.38250  Biso   1.000  O
  O28      1.0000 0.01040  0.01680  0.38250  Biso   1.000  O
  O29      1.0000 0.48960  0.51680  0.11750  Biso   1.000  O
  O30      1.0000 0.98960  0.01680  0.11750  Biso   1.000  O
  O31      1.0000 0.48960  0.48320  0.61750  Biso   1.000  O
  O32      1.0000 0.98960  0.98320  0.61750  Biso   1.000  O
  O33      1.0000 0.77900  0.32920  0.58450  Biso   1.000  O
  O34      1.0000 0.27900  0.82920  0.58450  Biso   1.000  O
  O35      1.0000 0.77900  0.67080  0.08450  Biso   1.000  O
  O36      1.0000 0.27900  0.17080  0.08450  Biso   1.000  O
  O37      1.0000 0.22100  0.67080  0.41550  Biso   1.000  O
  O38      1.0000 0.72100  0.17080  0.41550  Biso   1.000  O
  O39      1.0000 0.22100  0.32920  0.91550  Biso   1.000  O
  O40      1.0000 0.72100  0.82920  0.91550  Biso   1.000  O
  O41      1.0000 0.56740  0.45960  0.99150  Biso   1.000  O
  O42      1.0000 0.06740  0.95960  0.99150  Biso   1.000  O
  O43      1.0000 0.56740  0.54040  0.49150  Biso   1.000  O
  O44      1.0000 0.06740  0.04040  0.49150  Biso   1.000  O
  O45      1.0000 0.43260  0.54040  0.00850  Biso   1.000  O
  O46      1.0000 0.93260  0.04040  0.00850  Biso   1.000  O
  O47      1.0000 0.43260  0.45960  0.50850  Biso   1.000  O
  O48      1.0000 0.93260  0.95960  0.50850  Biso   1.000  O
  O49      1.0000 0.68270  0.25970  0.90060  Biso   1.000  O
  O50      1.0000 0.18270  0.75970  0.90060  Biso   1.000  O
  O51      1.0000 0.68270  0.74030  0.40060  Biso   1.000  O
  O52      1.0000 0.18270  0.24030  0.40060  Biso   1.000  O
  O53      1.0000 0.31730  0.74030  0.09940  Biso   1.000  O
  O54      1.0000 0.81730  0.24030  0.09940  Biso   1.000  O
  O55      1.0000 0.31730  0.25970  0.59940  Biso   1.000  O
  O56      1.0000 0.81730  0.75970  0.59940  Biso   1.000  O
  O57      1.0000 0.71190  0.34120  0.97700  Biso   1.000  O
  O58      1.0000 0.21190  0.84120  0.97700  Biso   1.000  O
  O59      1.0000 0.71190  0.65880  0.47700  Biso   1.000  O
  O60      1.0000 0.21190  0.15880  0.47700  Biso   1.000  O
  O61      1.0000 0.28810  0.65880  0.02300  Biso   1.000  O
  O62      1.0000 0.78810  0.15880  0.02300  Biso   1.000  O
  O63      1.0000 0.28810  0.34120  0.52300  Biso   1.000  O
  O64      1.0000 0.78810  0.84120  0.52300  Biso   1.000  O
  O65      1.0000 0.68920  0.20370  0.53470  Biso   1.000  O
  O66      1.0000 0.18920  0.70370  0.53470  Biso   1.000  O
  O67      1.0000 0.68920  0.79630  0.03470  Biso   1.000  O
  O68      1.0000 0.18920  0.29630  0.03470  Biso   1.000  O
  O69      1.0000 0.31080  0.79630  0.46530  Biso   1.000  O
  O70      1.0000 0.81080  0.29630  0.46530  Biso   1.000  O
  O71      1.0000 0.31080  0.20370  0.96530  Biso   1.000  O
  O72      1.0000 0.81080  0.70370  0.96530  Biso   1.000  O
  O73      1.0000 0.68430  0.30240  0.49350  Biso   1.000  O
  O74      1.0000 0.18430  0.80240  0.49350  Biso   1.000  O
  O75      1.0000 0.68430  0.69760  0.99350  Biso   1.000  O
  O76      1.0000 0.18430  0.19760  0.99350  Biso   1.000  O
  O77      1.0000 0.31570  0.69760  0.50650  Biso   1.000  O
  O78      1.0000 0.81570  0.19760  0.50650  Biso   1.000  O
  O79      1.0000 0.31570  0.30240  0.00650  Biso   1.000  O
  O80      1.0000 0.81570  0.80240  0.00650  Biso   1.000  O
  O81      1.0000 0.49590  0.40310  0.44980  Biso   1.000  O
  O82      1.0000 0.99590  0.90310  0.44980  Biso   1.000  O
  O83      1.0000 0.49590  0.59690  0.94980  Biso   1.000  O
  O84      1.0000 0.99590  0.09690  0.94980  Biso   1.000  O
  O85      1.0000 0.50410  0.59690  0.55020  Biso   1.000  O
  O86      1.0000 0.00410  0.09690  0.55020  Biso   1.000  O
  O87      1.0000 0.50410  0.40310  0.05020  Biso   1.000  O
  O88      1.0000 0.00410  0.90310  0.05020  Biso   1.000  O
  O89      1.0000 0.55270  0.42850  0.55980  Biso   1.000  O
  O90      1.0000 0.05270  0.92850  0.55980  Biso   1.000  O
  O91      1.0000 0.55270  0.57150  0.05980  Biso   1.000  O
  O92      1.0000 0.05270  0.07150  0.05980  Biso   1.000  O
  O93      1.0000 0.44730  0.57150  0.44020  Biso   1.000  O
  O94      1.0000 0.94730  0.07150  0.44020  Biso   1.000  O
  O95      1.0000 0.44730  0.42850  0.94020  Biso   1.000  O
  O96      1.0000 0.94730  0.92850  0.94020  Biso   1.000  O
  C1       1.0000 0.82060  0.30550  0.85310  Biso   1.000  C
  C2       1.0000 0.32060  0.80550  0.85310  Biso   1.000  C
  C3       1.0000 0.82060  0.69450  0.35310  Biso   1.000  C
  C4       1.0000 0.32060  0.19450  0.35310  Biso   1.000  C
  C5       1.0000 0.17940  0.69450  0.14690  Biso   1.000  C
  C6       1.0000 0.67940  0.19450  0.14690  Biso   1.000  C
  C7       1.0000 0.17940  0.30550  0.64690  Biso   1.000  C
  C8       1.0000 0.67940  0.80550  0.64690  Biso   1.000  C
  C9       1.0000 0.79820  0.28420  0.77280  Biso   1.000  C
  C10      1.0000 0.29820  0.78420  0.77280  Biso   1.000  C
  C11      1.0000 0.79820  0.71580  0.27280  Biso   1.000  C
  C12      1.0000 0.29820  0.21580  0.27280  Biso   1.000  C
  C13      1.0000 0.20180  0.71580  0.22720  Biso   1.000  C
  C14      1.0000 0.70180  0.21580  0.22720  Biso   1.000  C
  C15      1.0000 0.20180  0.28420  0.72720  Biso   1.000  C
  C16      1.0000 0.70180  0.78420  0.72720  Biso   1.000  C
  H1       1.0000 0.77280  0.25450  0.76130  Biso   1.000  H
  H2       1.0000 0.27280  0.75450  0.76130  Biso   1.000  H
  H3       1.0000 0.77280  0.74550  0.26130  Biso   1.000  H
  H4       1.0000 0.27280  0.24550  0.26130  Biso   1.000  H
  H5       1.0000 0.22720  0.74550  0.23870  Biso   1.000  H
  H6       1.0000 0.72720  0.24550  0.23870  Biso   1.000  H
  H7       1.0000 0.22720  0.25450  0.73870  Biso   1.000  H
  H8       1.0000 0.72720  0.75450  0.73870  Biso   1.000  H
  C17      1.0000 0.81400  0.30720  0.71670  Biso   1.000  C
  C18      1.0000 0.31400  0.80720  0.71670  Biso   1.000  C
  C19      1.0000 0.81400  0.69280  0.21670  Biso   1.000  C
  C20      1.0000 0.31400  0.19280  0.21670  Biso   1.000  C
  C21      1.0000 0.18600  0.69280  0.28330  Biso   1.000  C
  C22      1.0000 0.68600  0.19280  0.28330  Biso   1.000  C
  C23      1.0000 0.18600  0.30720  0.78330  Biso   1.000  C
  C24      1.0000 0.68600  0.80720  0.78330  Biso   1.000  C
  C25      1.0000 0.85080  0.34570  0.73280  Biso   1.000  C
  C26      1.0000 0.35080  0.84570  0.73280  Biso   1.000  C
  C27      1.0000 0.85080  0.65430  0.23280  Biso   1.000  C
  C28      1.0000 0.35080  0.15430  0.23280  Biso   1.000  C
  C29      1.0000 0.14920  0.65430  0.26720  Biso   1.000  C
  C30      1.0000 0.64920  0.15430  0.26720  Biso   1.000  C
  C31      1.0000 0.14920  0.34570  0.76720  Biso   1.000  C
  C32      1.0000 0.64920  0.84570  0.76720  Biso   1.000  C
  C33      1.0000 0.87630  0.36700  0.81480  Biso   1.000  C
  C34      1.0000 0.37630  0.86700  0.81480  Biso   1.000  C
  C35      1.0000 0.87630  0.63300  0.31480  Biso   1.000  C
  C36      1.0000 0.37630  0.13300  0.31480  Biso   1.000  C
  C37      1.0000 0.12370  0.63300  0.18520  Biso   1.000  C
  C38      1.0000 0.62370  0.13300  0.18520  Biso   1.000  C
  C39      1.0000 0.12370  0.36700  0.68520  Biso   1.000  C
  C40      1.0000 0.62370  0.86700  0.68520  Biso   1.000  C
  H9       1.0000 0.91030  0.35470  0.82810  Biso   1.000  H
  H10      1.0000 0.41030  0.85470  0.82810  Biso   1.000  H
  H11      1.0000 0.91030  0.64530  0.32810  Biso   1.000  H
  H12      1.0000 0.41030  0.14530  0.32810  Biso   1.000  H
  H13      1.0000 0.08970  0.64530  0.17190  Biso   1.000  H
  H14      1.0000 0.58970  0.14530  0.17190  Biso   1.000  H
  H15      1.0000 0.08970  0.35470  0.67190  Biso   1.000  H
  H16      1.0000 0.58970  0.85470  0.67190  Biso   1.000  H
  H17      1.0000 0.87490  0.41340  0.81710  Biso   1.000  H
  H18      1.0000 0.37490  0.91340  0.81710  Biso   1.000  H
  H19      1.0000 0.87490  0.58660  0.31710  Biso   1.000  H
  H20      1.0000 0.37490  0.08660  0.31710  Biso   1.000  H
  H21      1.0000 0.12510  0.58660  0.18290  Biso   1.000  H
  H22      1.0000 0.62510  0.08660  0.18290  Biso   1.000  H
  H23      1.0000 0.12510  0.41340  0.68290  Biso   1.000  H
  H24      1.0000 0.62510  0.91340  0.68290  Biso   1.000  H
  C41      1.0000 0.85590  0.34070  0.87170  Biso   1.000  C
  C42      1.0000 0.35590  0.84070  0.87170  Biso   1.000  C
  C43      1.0000 0.85590  0.65930  0.37170  Biso   1.000  C
  C44      1.0000 0.35590  0.15930  0.37170  Biso   1.000  C
  C45      1.0000 0.14410  0.65930  0.12830  Biso   1.000  C
  C46      1.0000 0.64410  0.15930  0.12830  Biso   1.000  C
  C47      1.0000 0.14410  0.34070  0.62830  Biso   1.000  C
  C48      1.0000 0.64410  0.84070  0.62830  Biso   1.000  C
  C49      1.0000 0.79600  0.28260  0.91200  Biso   1.000  C
  C50      1.0000 0.29600  0.78260  0.91200  Biso   1.000  C
  C51      1.0000 0.79600  0.71740  0.41200  Biso   1.000  C
  C52      1.0000 0.29600  0.21740  0.41200  Biso   1.000  C
  C53      1.0000 0.20400  0.71740  0.08800  Biso   1.000  C
  C54      1.0000 0.70400  0.21740  0.08800  Biso   1.000  C
  C55      1.0000 0.20400  0.28260  0.58800  Biso   1.000  C
  C56      1.0000 0.70400  0.78260  0.58800  Biso   1.000  C
  C57      1.0000 0.78940  0.28850  0.63570  Biso   1.000  C
  C58      1.0000 0.28940  0.78850  0.63570  Biso   1.000  C
  C59      1.0000 0.78940  0.71150  0.13570  Biso   1.000  C
  C60      1.0000 0.28940  0.21150  0.13570  Biso   1.000  C
  C61      1.0000 0.21060  0.71150  0.36430  Biso   1.000  C
  C62      1.0000 0.71060  0.21150  0.36430  Biso   1.000  C
  C63      1.0000 0.21060  0.28850  0.86430  Biso   1.000  C
  C64      1.0000 0.71060  0.78850  0.86430  Biso   1.000  C
  C65      1.0000 0.57810  0.42740  0.87560  Biso   1.000  C
  C66      1.0000 0.07810  0.92740  0.87560  Biso   1.000  C
  C67      1.0000 0.57810  0.57260  0.37560  Biso   1.000  C
  C68      1.0000 0.07810  0.07260  0.37560  Biso   1.000  C
  C69      1.0000 0.42190  0.57260  0.12440  Biso   1.000  C
  C70      1.0000 0.92190  0.07260  0.12440  Biso   1.000  C
  C71      1.0000 0.42190  0.42740  0.62440  Biso   1.000  C
  C72      1.0000 0.92190  0.92740  0.62440  Biso   1.000  C
  C73      1.0000 0.61680  0.38980  0.91370  Biso   1.000  C
  C74      1.0000 0.11680  0.88980  0.91370  Biso   1.000  C
  C75      1.0000 0.61680  0.61020  0.41370  Biso   1.000  C
  C76      1.0000 0.11680  0.11020  0.41370  Biso   1.000  C
  C77      1.0000 0.38320  0.61020  0.08630  Biso   1.000  C
  C78      1.0000 0.88320  0.11020  0.08630  Biso   1.000  C
  C79      1.0000 0.38320  0.38980  0.58630  Biso   1.000  C
  C80      1.0000 0.88320  0.88980  0.58630  Biso   1.000  C
  H25      1.0000 0.62650  0.38890  0.96880  Biso   1.000  H
  H26      1.0000 0.12650  0.88890  0.96880  Biso   1.000  H
  H27      1.0000 0.62650  0.61110  0.46880  Biso   1.000  H
  H28      1.0000 0.12650  0.11110  0.46880  Biso   1.000  H
  H29      1.0000 0.37350  0.61110  0.03120  Biso   1.000  H
  H30      1.0000 0.87350  0.11110  0.03120  Biso   1.000  H
  H31      1.0000 0.37350  0.38890  0.53120  Biso   1.000  H
  H32      1.0000 0.87350  0.88890  0.53120  Biso   1.000  H
  C81      1.0000 0.64240  0.35310  0.87520  Biso   1.000  C
  C82      1.0000 0.14240  0.85310  0.87520  Biso   1.000  C
  C83      1.0000 0.64240  0.64690  0.37520  Biso   1.000  C
  C84      1.0000 0.14240  0.14690  0.37520  Biso   1.000  C
  C85      1.0000 0.35760  0.64690  0.12480  Biso   1.000  C
  C86      1.0000 0.85760  0.14690  0.12480  Biso   1.000  C
  C87      1.0000 0.35760  0.35310  0.62480  Biso   1.000  C
  C88      1.0000 0.85760  0.85310  0.62480  Biso   1.000  C
  C89      1.0000 0.87840  0.15280  0.21500  Biso   1.000  C
  C90      1.0000 0.37840  0.65280  0.21500  Biso   1.000  C
  C91      1.0000 0.87840  0.84720  0.71500  Biso   1.000  C
  C92      1.0000 0.37840  0.34720  0.71500  Biso   1.000  C
  C93      1.0000 0.12160  0.84720  0.78500  Biso   1.000  C
  C94      1.0000 0.62160  0.34720  0.78500  Biso   1.000  C
  C95      1.0000 0.12160  0.15280  0.28500  Biso   1.000  C
  C96      1.0000 0.62160  0.65280  0.28500  Biso   1.000  C
  C97      1.0000 0.63930  0.37680  0.80290  Biso   1.000  C
  C98      1.0000 0.13930  0.87680  0.80290  Biso   1.000  C
  C99      1.0000 0.63930  0.62320  0.30290  Biso   1.000  C
  C100     1.0000 0.13930  0.12320  0.30290  Biso   1.000  C
  C101     1.0000 0.36070  0.62320  0.19710  Biso   1.000  C
  C102     1.0000 0.86070  0.12320  0.19710  Biso   1.000  C
  C103     1.0000 0.36070  0.37680  0.69710  Biso   1.000  C
  C104     1.0000 0.86070  0.87680  0.69710  Biso   1.000  C
  C105     1.0000 0.92290  0.11610  0.24700  Biso   1.000  C
  C106     1.0000 0.42290  0.61610  0.24700  Biso   1.000  C
  C107     1.0000 0.92290  0.88390  0.74700  Biso   1.000  C
  C108     1.0000 0.42290  0.38390  0.74700  Biso   1.000  C
  C109     1.0000 0.07710  0.88390  0.75300  Biso   1.000  C
  C110     1.0000 0.57710  0.38390  0.75300  Biso   1.000  C
  C111     1.0000 0.07710  0.11610  0.25300  Biso   1.000  C
  C112     1.0000 0.57710  0.61610  0.25300  Biso   1.000  C
  C113     1.0000 0.59810  0.41230  0.76010  Biso   1.000  C
  C114     1.0000 0.09810  0.91230  0.76010  Biso   1.000  C
  C115     1.0000 0.59810  0.58770  0.26010  Biso   1.000  C
  C116     1.0000 0.09810  0.08770  0.26010  Biso   1.000  C
  C117     1.0000 0.40190  0.58770  0.23990  Biso   1.000  C
  C118     1.0000 0.90190  0.08770  0.23990  Biso   1.000  C
  C119     1.0000 0.40190  0.41230  0.73990  Biso   1.000  C
  C120     1.0000 0.90190  0.91230  0.73990  Biso   1.000  C
  C121     1.0000 0.56800  0.44020  0.79690  Biso   1.000  C
  C122     1.0000 0.06800  0.94020  0.79690  Biso   1.000  C
  C123     1.0000 0.56800  0.55980  0.29690  Biso   1.000  C
  C124     1.0000 0.06800  0.05980  0.29690  Biso   1.000  C
  C125     1.0000 0.43200  0.55980  0.20310  Biso   1.000  C
  C126     1.0000 0.93200  0.05980  0.20310  Biso   1.000  C
  C127     1.0000 0.43200  0.44020  0.70310  Biso   1.000  C
  C128     1.0000 0.93200  0.94020  0.70310  Biso   1.000  C
  H33      1.0000 0.54460  0.47360  0.77100  Biso   1.000  H
  H34      1.0000 0.04460  0.97360  0.77100  Biso   1.000  H
  H35      1.0000 0.54460  0.52640  0.27100  Biso   1.000  H
  H36      1.0000 0.04460  0.02640  0.27100  Biso   1.000  H
  H37      1.0000 0.45540  0.52640  0.22900  Biso   1.000  H
  H38      1.0000 0.95540  0.02640  0.22900  Biso   1.000  H
  H39      1.0000 0.45540  0.47360  0.72900  Biso   1.000  H
  H40      1.0000 0.95540  0.97360  0.72900  Biso   1.000  H
  C129     1.0000 0.54920  0.45870  0.92130  Biso   1.000  C
  C130     1.0000 0.04920  0.95870  0.92130  Biso   1.000  C
  C131     1.0000 0.54920  0.54130  0.42130  Biso   1.000  C
  C132     1.0000 0.04920  0.04130  0.42130  Biso   1.000  C
  C133     1.0000 0.45080  0.54130  0.07870  Biso   1.000  C
  C134     1.0000 0.95080  0.04130  0.07870  Biso   1.000  C
  C135     1.0000 0.45080  0.45870  0.57870  Biso   1.000  C
  C136     1.0000 0.95080  0.95870  0.57870  Biso   1.000  C
  C137     1.0000 0.68170  0.31700  0.91910  Biso   1.000  C
  C138     1.0000 0.18170  0.81700  0.91910  Biso   1.000  C
  C139     1.0000 0.68170  0.68300  0.41910  Biso   1.000  C
  C140     1.0000 0.18170  0.18300  0.41910  Biso   1.000  C
  C141     1.0000 0.31830  0.68300  0.08090  Biso   1.000  C
  C142     1.0000 0.81830  0.18300  0.08090  Biso   1.000  C
  C143     1.0000 0.31830  0.31700  0.58090  Biso   1.000  C
  C144     1.0000 0.81830  0.81700  0.58090  Biso   1.000  C
  C145     1.0000 0.61940  0.25930  0.51790  Biso   1.000  C
  C146     1.0000 0.11940  0.75930  0.51790  Biso   1.000  C
  C147     1.0000 0.61940  0.74070  0.01790  Biso   1.000  C
  C148     1.0000 0.11940  0.24070  0.01790  Biso   1.000  C
  C149     1.0000 0.38060  0.74070  0.48210  Biso   1.000  C
  C150     1.0000 0.88060  0.24070  0.48210  Biso   1.000  C
  C151     1.0000 0.38060  0.25930  0.98210  Biso   1.000  C
  C152     1.0000 0.88060  0.75930  0.98210  Biso   1.000  C
  C153     1.0000 0.59630  0.31890  0.51080  Biso   1.000  C
  C154     1.0000 0.09630  0.81890  0.51080  Biso   1.000  C
  C155     1.0000 0.59630  0.68110  0.01080  Biso   1.000  C
  C156     1.0000 0.09630  0.18110  0.01080  Biso   1.000  C
  C157     1.0000 0.40370  0.68110  0.48920  Biso   1.000  C
  C158     1.0000 0.90370  0.18110  0.48920  Biso   1.000  C
  C159     1.0000 0.40370  0.31890  0.98920  Biso   1.000  C
  C160     1.0000 0.90370  0.81890  0.98920  Biso   1.000  C
  H41      1.0000 0.61400  0.35520  0.50580  Biso   1.000  H
  H42      1.0000 0.11400  0.85520  0.50580  Biso   1.000  H
  H43      1.0000 0.61400  0.64480  0.00580  Biso   1.000  H
  H44      1.0000 0.11400  0.14480  0.00580  Biso   1.000  H
  H45      1.0000 0.38600  0.64480  0.49420  Biso   1.000  H
  H46      1.0000 0.88600  0.14480  0.49420  Biso   1.000  H
  H47      1.0000 0.38600  0.35520  0.99420  Biso   1.000  H
  H48      1.0000 0.88600  0.85520  0.99420  Biso   1.000  H
  C161     1.0000 0.55020  0.32620  0.51070  Biso   1.000  C
  C162     1.0000 0.05020  0.82620  0.51070  Biso   1.000  C
  C163     1.0000 0.55020  0.67380  0.01070  Biso   1.000  C
  C164     1.0000 0.05020  0.17380  0.01070  Biso   1.000  C
  C165     1.0000 0.44980  0.67380  0.48930  Biso   1.000  C
  C166     1.0000 0.94980  0.17380  0.48930  Biso   1.000  C
  C167     1.0000 0.44980  0.32620  0.98930  Biso   1.000  C
  C168     1.0000 0.94980  0.82620  0.98930  Biso   1.000  C
  C169     1.0000 0.52340  0.27300  0.50940  Biso   1.000  C
  C170     1.0000 0.02340  0.77300  0.50940  Biso   1.000  C
  C171     1.0000 0.52340  0.72700  0.00940  Biso   1.000  C
  C172     1.0000 0.02340  0.22700  0.00940  Biso   1.000  C
  C173     1.0000 0.47660  0.72700  0.49060  Biso   1.000  C
  C174     1.0000 0.97660  0.22700  0.49060  Biso   1.000  C
  C175     1.0000 0.47660  0.27300  0.99060  Biso   1.000  C
  C176     1.0000 0.97660  0.77300  0.99060  Biso   1.000  C
  C177     1.0000 0.54520  0.21310  0.51600  Biso   1.000  C
  C178     1.0000 0.04520  0.71310  0.51600  Biso   1.000  C
  C179     1.0000 0.54520  0.78690  0.01600  Biso   1.000  C
  C180     1.0000 0.04520  0.28690  0.01600  Biso   1.000  C
  C181     1.0000 0.45480  0.78690  0.48400  Biso   1.000  C
  C182     1.0000 0.95480  0.28690  0.48400  Biso   1.000  C
  C183     1.0000 0.45480  0.21310  0.98400  Biso   1.000  C
  C184     1.0000 0.95480  0.71310  0.98400  Biso   1.000  C
  H49      1.0000 0.52720  0.17660  0.51860  Biso   1.000  H
  H50      1.0000 0.02720  0.67660  0.51860  Biso   1.000  H
  H51      1.0000 0.52720  0.82340  0.01860  Biso   1.000  H
  H52      1.0000 0.02720  0.32340  0.01860  Biso   1.000  H
  H53      1.0000 0.47280  0.82340  0.48140  Biso   1.000  H
  H54      1.0000 0.97280  0.32340  0.48140  Biso   1.000  H
  H55      1.0000 0.47280  0.17660  0.98140  Biso   1.000  H
  H56      1.0000 0.97280  0.67660  0.98140  Biso   1.000  H
  C185     1.0000 0.59060  0.20790  0.51700  Biso   1.000  C
  C186     1.0000 0.09060  0.70790  0.51700  Biso   1.000  C
  C187     1.0000 0.59060  0.79210  0.01700  Biso   1.000  C
  C188     1.0000 0.09060  0.29210  0.01700  Biso   1.000  C
  C189     1.0000 0.40940  0.79210  0.48300  Biso   1.000  C
  C190     1.0000 0.90940  0.29210  0.48300  Biso   1.000  C
  C191     1.0000 0.40940  0.20790  0.98300  Biso   1.000  C
  C192     1.0000 0.90940  0.70790  0.98300  Biso   1.000  C
  C193     1.0000 0.66590  0.25540  0.51460  Biso   1.000  C
  C194     1.0000 0.16590  0.75540  0.51460  Biso   1.000  C
  C195     1.0000 0.66590  0.74460  0.01460  Biso   1.000  C
  C196     1.0000 0.16590  0.24460  0.01460  Biso   1.000  C
  C197     1.0000 0.33410  0.74460  0.48540  Biso   1.000  C
  C198     1.0000 0.83410  0.24460  0.48540  Biso   1.000  C
  C199     1.0000 0.33410  0.25540  0.98540  Biso   1.000  C
  C200     1.0000 0.83410  0.75540  0.98540  Biso   1.000  C
  C201     1.0000 0.53150  0.38970  0.50810  Biso   1.000  C
  C202     1.0000 0.03150  0.88970  0.50810  Biso   1.000  C
  C203     1.0000 0.53150  0.61030  0.00810  Biso   1.000  C
  C204     1.0000 0.03150  0.11030  0.00810  Biso   1.000  C
  C205     1.0000 0.46850  0.61030  0.49190  Biso   1.000  C
  C206     1.0000 0.96850  0.11030  0.49190  Biso   1.000  C
  C207     1.0000 0.46850  0.38970  0.99190  Biso   1.000  C
  C208     1.0000 0.96850  0.88970  0.99190  Biso   1.000  C
  O97      1.0000 0.75750  0.09640  0.56140  Biso   1.000  O
  O98      1.0000 0.25750  0.59640  0.56140  Biso   1.000  O
  O99      1.0000 0.75750  0.90360  0.06140  Biso   1.000  O
  O100     1.0000 0.25750  0.40360  0.06140  Biso   1.000  O
  O101     1.0000 0.24250  0.90360  0.43860  Biso   1.000  O
  O102     1.0000 0.74250  0.40360  0.43860  Biso   1.000  O
  O103     1.0000 0.24250  0.09640  0.93860  Biso   1.000  O
  O104     1.0000 0.74250  0.59640  0.93860  Biso   1.000  O
  N1       1.0000 0.70680  0.00660  0.54360  Biso   1.000  N
  N2       1.0000 0.20680  0.50660  0.54360  Biso   1.000  N
  N3       1.0000 0.70680  0.99340  0.04360  Biso   1.000  N
  N4       1.0000 0.20680  0.49340  0.04360  Biso   1.000  N
  N5       1.0000 0.29320  0.99340  0.45640  Biso   1.000  N
  N6       1.0000 0.79320  0.49340  0.45640  Biso   1.000  N
  N7       1.0000 0.29320  0.00660  0.95640  Biso   1.000  N
  N8       1.0000 0.79320  0.50660  0.95640  Biso   1.000  N
  C209     1.0000 0.72070  0.06800  0.52910  Biso   1.000  C
  C210     1.0000 0.22070  0.56800  0.52910  Biso   1.000  C
  C211     1.0000 0.72070  0.93200  0.02910  Biso   1.000  C
  C212     1.0000 0.22070  0.43200  0.02910  Biso   1.000  C
  C213     1.0000 0.27930  0.93200  0.47090  Biso   1.000  C
  C214     1.0000 0.77930  0.43200  0.47090  Biso   1.000  C
  C215     1.0000 0.27930  0.06800  0.97090  Biso   1.000  C
  C216     1.0000 0.77930  0.56800  0.97090  Biso   1.000  C
  H57      1.0000 0.69830  0.09020  0.48870  Biso   1.000  H
  H58      1.0000 0.19830  0.59020  0.48870  Biso   1.000  H
  H59      1.0000 0.69830  0.90980  0.98870  Biso   1.000  H
  H60      1.0000 0.19830  0.40980  0.98870  Biso   1.000  H
  H61      1.0000 0.30170  0.90980  0.51130  Biso   1.000  H
  H62      1.0000 0.80170  0.40980  0.51130  Biso   1.000  H
  H63      1.0000 0.30170  0.09020  0.01130  Biso   1.000  H
  H64      1.0000 0.80170  0.59020  0.01130  Biso   1.000  H
  C217     1.0000 0.66180  0.97310  0.50450  Biso   1.000  C
  C218     1.0000 0.16180  0.47310  0.50450  Biso   1.000  C
  C219     1.0000 0.66180  0.02690  0.00450  Biso   1.000  C
  C220     1.0000 0.16180  0.52690  0.00450  Biso   1.000  C
  C221     1.0000 0.33820  0.02690  0.49550  Biso   1.000  C
  C222     1.0000 0.83820  0.52690  0.49550  Biso   1.000  C
  C223     1.0000 0.33820  0.97310  0.99550  Biso   1.000  C
  C224     1.0000 0.83820  0.47310  0.99550  Biso   1.000  C
  H65      1.0000 0.63910  0.00230  0.47040  Biso   1.000  H
  H66      1.0000 0.13910  0.50230  0.47040  Biso   1.000  H
  H67      1.0000 0.63910  0.99770  0.97040  Biso   1.000  H
  H68      1.0000 0.13910  0.49770  0.97040  Biso   1.000  H
  H69      1.0000 0.36090  0.99770  0.52960  Biso   1.000  H
  H70      1.0000 0.86090  0.49770  0.52960  Biso   1.000  H
  H71      1.0000 0.36090  0.00230  0.02960  Biso   1.000  H
  H72      1.0000 0.86090  0.50230  0.02960  Biso   1.000  H
  H73      1.0000 0.66840  0.93840  0.47360  Biso   1.000  H
  H74      1.0000 0.16840  0.43840  0.47360  Biso   1.000  H
  H75      1.0000 0.66840  0.06160  0.97360  Biso   1.000  H
  H76      1.0000 0.16840  0.56160  0.97360  Biso   1.000  H
  H77      1.0000 0.33160  0.06160  0.52640  Biso   1.000  H
  H78      1.0000 0.83160  0.56160  0.52640  Biso   1.000  H
  H79      1.0000 0.33160  0.93840  0.02640  Biso   1.000  H
  H80      1.0000 0.83160  0.43840  0.02640  Biso   1.000  H
  H81      1.0000 0.64800  0.95640  0.54360  Biso   1.000  H
  H82      1.0000 0.14800  0.45640  0.54360  Biso   1.000  H
  H83      1.0000 0.64800  0.04360  0.04360  Biso   1.000  H
  H84      1.0000 0.14800  0.54360  0.04360  Biso   1.000  H
  H85      1.0000 0.35200  0.04360  0.45640  Biso   1.000  H
  H86      1.0000 0.85200  0.54360  0.45640  Biso   1.000  H
  H87      1.0000 0.35200  0.95640  0.95640  Biso   1.000  H
  H88      1.0000 0.85200  0.45640  0.95640  Biso   1.000  H
  C225     1.0000 0.75190  0.98820  0.60000  Biso   1.000  C
  C226     1.0000 0.25190  0.48820  0.60000  Biso   1.000  C
  C227     1.0000 0.75190  0.01180  0.10000  Biso   1.000  C
  C228     1.0000 0.25190  0.51180  0.10000  Biso   1.000  C
  C229     1.0000 0.24810  0.01180  0.40000  Biso   1.000  C
  C230     1.0000 0.74810  0.51180  0.40000  Biso   1.000  C
  C231     1.0000 0.24810  0.98820  0.90000  Biso   1.000  C
  C232     1.0000 0.74810  0.48820  0.90000  Biso   1.000  C
  H89      1.0000 0.77280  0.02490  0.61370  Biso   1.000  H
  H90      1.0000 0.27280  0.52490  0.61370  Biso   1.000  H
  H91      1.0000 0.77280  0.97510  0.11370  Biso   1.000  H
  H92      1.0000 0.27280  0.47510  0.11370  Biso   1.000  H
  H93      1.0000 0.22720  0.97510  0.38630  Biso   1.000  H
  H94      1.0000 0.72720  0.47510  0.38630  Biso   1.000  H
  H95      1.0000 0.22720  0.02490  0.88630  Biso   1.000  H
  H96      1.0000 0.72720  0.52490  0.88630  Biso   1.000  H
  H97      1.0000 0.74570  0.97110  0.64600  Biso   1.000  H
  H98      1.0000 0.24570  0.47110  0.64600  Biso   1.000  H
  H99      1.0000 0.74570  0.02890  0.14600  Biso   1.000  H
  H100     1.0000 0.24570  0.52890  0.14600  Biso   1.000  H
  H101     1.0000 0.25430  0.02890  0.35400  Biso   1.000  H
  H102     1.0000 0.75430  0.52890  0.35400  Biso   1.000  H
  H103     1.0000 0.25430  0.97110  0.85400  Biso   1.000  H
  H104     1.0000 0.75430  0.47110  0.85400  Biso   1.000  H
  H105     1.0000 0.76740  0.95610  0.57650  Biso   1.000  H
  H106     1.0000 0.26740  0.45610  0.57650  Biso   1.000  H
  H107     1.0000 0.76740  0.04390  0.07650  Biso   1.000  H
  H108     1.0000 0.26740  0.54390  0.07650  Biso   1.000  H
  H109     1.0000 0.23260  0.04390  0.42350  Biso   1.000  H
  H110     1.0000 0.73260  0.54390  0.42350  Biso   1.000  H
  H111     1.0000 0.23260  0.95610  0.92350  Biso   1.000  H
  H112     1.0000 0.73260  0.45610  0.92350  Biso   1.000  H
  O105     1.0000 0.69530  0.13550  0.87440  Biso   1.000  O
  O106     1.0000 0.19530  0.63550  0.87440  Biso   1.000  O
  O107     1.0000 0.69530  0.86450  0.37440  Biso   1.000  O
  O108     1.0000 0.19530  0.36450  0.37440  Biso   1.000  O
  O109     1.0000 0.30470  0.86450  0.12560  Biso   1.000  O
  O110     1.0000 0.80470  0.36450  0.12560  Biso   1.000  O
  O111     1.0000 0.30470  0.13550  0.62560  Biso   1.000  O
  O112     1.0000 0.80470  0.63550  0.62560  Biso   1.000  O
  N9       1.0000 0.65040  0.10990  0.73390  Biso   1.000  N
  N10      1.0000 0.15040  0.60990  0.73390  Biso   1.000  N
  N11      1.0000 0.65040  0.89010  0.23390  Biso   1.000  N
  N12      1.0000 0.15040  0.39010  0.23390  Biso   1.000  N
  N13      1.0000 0.34960  0.89010  0.26610  Biso   1.000  N
  N14      1.0000 0.84960  0.39010  0.26610  Biso   1.000  N
  N15      1.0000 0.34960  0.10990  0.76610  Biso   1.000  N
  N16      1.0000 0.84960  0.60990  0.76610  Biso   1.000  N
  C233     1.0000 0.68070  0.13890  0.80220  Biso   1.000  C
  C234     1.0000 0.18070  0.63890  0.80220  Biso   1.000  C
  C235     1.0000 0.68070  0.86110  0.30220  Biso   1.000  C
  C236     1.0000 0.18070  0.36110  0.30220  Biso   1.000  C
  C237     1.0000 0.31930  0.86110  0.19780  Biso   1.000  C
  C238     1.0000 0.81930  0.36110  0.19780  Biso   1.000  C
  C239     1.0000 0.31930  0.13890  0.69780  Biso   1.000  C
  C240     1.0000 0.81930  0.63890  0.69780  Biso   1.000  C
  H113     1.0000 0.69530  0.17430  0.78680  Biso   1.000  H
  H114     1.0000 0.19530  0.67430  0.78680  Biso   1.000  H
  H115     1.0000 0.69530  0.82570  0.28680  Biso   1.000  H
  H116     1.0000 0.19530  0.32570  0.28680  Biso   1.000  H
  H117     1.0000 0.30470  0.82570  0.21320  Biso   1.000  H
  H118     1.0000 0.80470  0.32570  0.21320  Biso   1.000  H
  H119     1.0000 0.30470  0.17430  0.71320  Biso   1.000  H
  H120     1.0000 0.80470  0.67430  0.71320  Biso   1.000  H
  C241     1.0000 0.60200  0.08700  0.71900  Biso   1.000  C
  C242     1.0000 0.10200  0.58700  0.71900  Biso   1.000  C
  C243     1.0000 0.60200  0.91300  0.21900  Biso   1.000  C
  C244     1.0000 0.10200  0.41300  0.21900  Biso   1.000  C
  C245     1.0000 0.39800  0.91300  0.28100  Biso   1.000  C
  C246     1.0000 0.89800  0.41300  0.28100  Biso   1.000  C
  C247     1.0000 0.39800  0.08700  0.78100  Biso   1.000  C
  C248     1.0000 0.89800  0.58700  0.78100  Biso   1.000  C
  H121     1.0000 0.59030  0.07000  0.66620  Biso   1.000  H
  H122     1.0000 0.09030  0.57000  0.66620  Biso   1.000  H
  H123     1.0000 0.59030  0.93000  0.16620  Biso   1.000  H
  H124     1.0000 0.09030  0.43000  0.16620  Biso   1.000  H
  H125     1.0000 0.40970  0.93000  0.33380  Biso   1.000  H
  H126     1.0000 0.90970  0.43000  0.33380  Biso   1.000  H
  H127     1.0000 0.40970  0.07000  0.83380  Biso   1.000  H
  H128     1.0000 0.90970  0.57000  0.83380  Biso   1.000  H
  H129     1.0000 0.58090  0.12190  0.72410  Biso   1.000  H
  H130     1.0000 0.08090  0.62190  0.72410  Biso   1.000  H
  H131     1.0000 0.58090  0.87810  0.22410  Biso   1.000  H
  H132     1.0000 0.08090  0.37810  0.22410  Biso   1.000  H
  H133     1.0000 0.41910  0.87810  0.27590  Biso   1.000  H
  H134     1.0000 0.91910  0.37810  0.27590  Biso   1.000  H
  H135     1.0000 0.41910  0.12190  0.77590  Biso   1.000  H
  H136     1.0000 0.91910  0.62190  0.77590  Biso   1.000  H
  H137     1.0000 0.60100  0.05420  0.75640  Biso   1.000  H
  H138     1.0000 0.10100  0.55420  0.75640  Biso   1.000  H
  H139     1.0000 0.60100  0.94580  0.25640  Biso   1.000  H
  H140     1.0000 0.10100  0.44580  0.25640  Biso   1.000  H
  H141     1.0000 0.39900  0.94580  0.24360  Biso   1.000  H
  H142     1.0000 0.89900  0.44580  0.24360  Biso   1.000  H
  H143     1.0000 0.39900  0.05420  0.74360  Biso   1.000  H
  H144     1.0000 0.89900  0.55420  0.74360  Biso   1.000  H
  C249     1.0000 0.66100  0.08200  0.66900  Biso   1.000  C
  C250     1.0000 0.16100  0.58200  0.66900  Biso   1.000  C
  C251     1.0000 0.66100  0.91800  0.16900  Biso   1.000  C
  C252     1.0000 0.16100  0.41800  0.16900  Biso   1.000  C
  C253     1.0000 0.33900  0.91800  0.33100  Biso   1.000  C
  C254     1.0000 0.83900  0.41800  0.33100  Biso   1.000  C
  C255     1.0000 0.33900  0.08200  0.83100  Biso   1.000  C
  C256     1.0000 0.83900  0.58200  0.83100  Biso   1.000  C
  H145     1.0000 0.69320  0.09500  0.66860  Biso   1.000  H
  H146     1.0000 0.19320  0.59500  0.66860  Biso   1.000  H
  H147     1.0000 0.69320  0.90500  0.16860  Biso   1.000  H
  H148     1.0000 0.19320  0.40500  0.16860  Biso   1.000  H
  H149     1.0000 0.30680  0.90500  0.33140  Biso   1.000  H
  H150     1.0000 0.80680  0.40500  0.33140  Biso   1.000  H
  H151     1.0000 0.30680  0.09500  0.83140  Biso   1.000  H
  H152     1.0000 0.80680  0.59500  0.83140  Biso   1.000  H
  H153     1.0000 0.63770  0.09600  0.62050  Biso   1.000  H
  H154     1.0000 0.13770  0.59600  0.62050  Biso   1.000  H
  H155     1.0000 0.63770  0.90400  0.12050  Biso   1.000  H
  H156     1.0000 0.13770  0.40400  0.12050  Biso   1.000  H
  H157     1.0000 0.36230  0.90400  0.37950  Biso   1.000  H
  H158     1.0000 0.86230  0.40400  0.37950  Biso   1.000  H
  H159     1.0000 0.36230  0.09600  0.87950  Biso   1.000  H
  H160     1.0000 0.86230  0.59600  0.87950  Biso   1.000  H
  H161     1.0000 0.66000  0.03620  0.67250  Biso   1.000  H
  H162     1.0000 0.16000  0.53620  0.67250  Biso   1.000  H
  H163     1.0000 0.66000  0.96380  0.17250  Biso   1.000  H
  H164     1.0000 0.16000  0.46380  0.17250  Biso   1.000  H
  H165     1.0000 0.34000  0.96380  0.32750  Biso   1.000  H
  H166     1.0000 0.84000  0.46380  0.32750  Biso   1.000  H
  H167     1.0000 0.34000  0.03620  0.82750  Biso   1.000  H
  H168     1.0000 0.84000  0.53620  0.82750  Biso   1.000  H
  O113     1.0000 0.73070  0.10720  0.90720  Biso   1.000  O
  O114     1.0000 0.23070  0.60720  0.90720  Biso   1.000  O
  O115     1.0000 0.73070  0.89280  0.40720  Biso   1.000  O
  O116     1.0000 0.23070  0.39280  0.40720  Biso   1.000  O
  O117     1.0000 0.26930  0.89280  0.09280  Biso   1.000  O
  O118     1.0000 0.76930  0.39280  0.09280  Biso   1.000  O
  O119     1.0000 0.26930  0.10720  0.59280  Biso   1.000  O
  O120     1.0000 0.76930  0.60720  0.59280  Biso   1.000  O
  N17      1.0000 0.77070  0.01280  0.89200  Biso   1.000  N
  N18      1.0000 0.27070  0.51280  0.89200  Biso   1.000  N
  N19      1.0000 0.77070  0.98720  0.39200  Biso   1.000  N
  N20      1.0000 0.27070  0.48720  0.39200  Biso   1.000  N
  N21      1.0000 0.22930  0.98720  0.10800  Biso   1.000  N
  N22      1.0000 0.72930  0.48720  0.10800  Biso   1.000  N
  N23      1.0000 0.22930  0.01280  0.60800  Biso   1.000  N
  N24      1.0000 0.72930  0.51280  0.60800  Biso   1.000  N
  C257     1.0000 0.76700  0.07460  0.92200  Biso   1.000  C
  C258     1.0000 0.26700  0.57460  0.92200  Biso   1.000  C
  C259     1.0000 0.76700  0.92540  0.42200  Biso   1.000  C
  C260     1.0000 0.26700  0.42540  0.42200  Biso   1.000  C
  C261     1.0000 0.23300  0.92540  0.07800  Biso   1.000  C
  C262     1.0000 0.73300  0.42540  0.07800  Biso   1.000  C
  C263     1.0000 0.23300  0.07460  0.57800  Biso   1.000  C
  C264     1.0000 0.73300  0.57460  0.57800  Biso   1.000  C
  C265     1.0000 0.72640  0.98340  0.84600  Biso   1.000  C
  C266     1.0000 0.22640  0.48340  0.84600  Biso   1.000  C
  C267     1.0000 0.72640  0.01660  0.34600  Biso   1.000  C
  C268     1.0000 0.22640  0.51660  0.34600  Biso   1.000  C
  C269     1.0000 0.27360  0.01660  0.15400  Biso   1.000  C
  C270     1.0000 0.77360  0.51660  0.15400  Biso   1.000  C
  C271     1.0000 0.27360  0.98340  0.65400  Biso   1.000  C
  C272     1.0000 0.77360  0.48340  0.65400  Biso   1.000  C
  C273     1.0000 0.81530  0.97900  0.92200  Biso   1.000  C
  C274     1.0000 0.31530  0.47900  0.92200  Biso   1.000  C
  C275     1.0000 0.81530  0.02100  0.42200  Biso   1.000  C
  C276     1.0000 0.31530  0.52100  0.42200  Biso   1.000  C
  C277     1.0000 0.18470  0.02100  0.07800  Biso   1.000  C
  C278     1.0000 0.68470  0.52100  0.07800  Biso   1.000  C
  C279     1.0000 0.18470  0.97900  0.57800  Biso   1.000  C
  C280     1.0000 0.68470  0.47900  0.57800  Biso   1.000  C
  O121     1.0000 0.41290  0.54050  0.83740  Biso   1.000  O
  O122     1.0000 0.91290  0.04050  0.83740  Biso   1.000  O
  O123     1.0000 0.41290  0.45950  0.33740  Biso   1.000  O
  O124     1.0000 0.91290  0.95950  0.33740  Biso   1.000  O
  O125     1.0000 0.58710  0.45950  0.16260  Biso   1.000  O
  O126     1.0000 0.08710  0.95950  0.16260  Biso   1.000  O
  O127     1.0000 0.58710  0.54050  0.66260  Biso   1.000  O
  O128     1.0000 0.08710  0.04050  0.66260  Biso   1.000  O
  N25      1.0000 0.37680  0.60200  0.74290  Biso   1.000  N
  N26      1.0000 0.87680  0.10200  0.74290  Biso   1.000  N
  N27      1.0000 0.37680  0.39800  0.24290  Biso   1.000  N
  N28      1.0000 0.87680  0.89800  0.24290  Biso   1.000  N
  N29      1.0000 0.62320  0.39800  0.25710  Biso   1.000  N
  N30      1.0000 0.12320  0.89800  0.25710  Biso   1.000  N
  N31      1.0000 0.62320  0.60200  0.75710  Biso   1.000  N
  N32      1.0000 0.12320  0.10200  0.75710  Biso   1.000  N
  C281     1.0000 0.42120  0.58210  0.79490  Biso   1.000  C
  C282     1.0000 0.92120  0.08210  0.79490  Biso   1.000  C
  C283     1.0000 0.42120  0.41790  0.29490  Biso   1.000  C
  C284     1.0000 0.92120  0.91790  0.29490  Biso   1.000  C
  C285     1.0000 0.57880  0.41790  0.20510  Biso   1.000  C
  C286     1.0000 0.07880  0.91790  0.20510  Biso   1.000  C
  C287     1.0000 0.57880  0.58210  0.70510  Biso   1.000  C
  C288     1.0000 0.07880  0.08210  0.70510  Biso   1.000  C
  C289     1.0000 0.33150  0.61400  0.75900  Biso   1.000  C
  C290     1.0000 0.83150  0.11400  0.75900  Biso   1.000  C
  C291     1.0000 0.33150  0.38600  0.25900  Biso   1.000  C
  C292     1.0000 0.83150  0.88600  0.25900  Biso   1.000  C
  C293     1.0000 0.66850  0.38600  0.24100  Biso   1.000  C
  C294     1.0000 0.16850  0.88600  0.24100  Biso   1.000  C
  C295     1.0000 0.66850  0.61400  0.74100  Biso   1.000  C
  C296     1.0000 0.16850  0.11400  0.74100  Biso   1.000  C
  C297     1.0000 0.38530  0.59400  0.66800  Biso   1.000  C
  C298     1.0000 0.88530  0.09400  0.66800  Biso   1.000  C
  C299     1.0000 0.38530  0.40600  0.16800  Biso   1.000  C
  C300     1.0000 0.88530  0.90600  0.16800  Biso   1.000  C
  C301     1.0000 0.61470  0.40600  0.33200  Biso   1.000  C
  C302     1.0000 0.11470  0.90600  0.33200  Biso   1.000  C
  C303     1.0000 0.61470  0.59400  0.83200  Biso   1.000  C
  C304     1.0000 0.11470  0.09400  0.83200  Biso   1.000  C
  C305     1.0000 0.79250  0.97360  0.87900  Biso   1.000  C
  C306     1.0000 0.29250  0.47360  0.87900  Biso   1.000  C
  C307     1.0000 0.79250  0.02640  0.37900  Biso   1.000  C
  C308     1.0000 0.29250  0.52640  0.37900  Biso   1.000  C
  C309     1.0000 0.20750  0.02640  0.12100  Biso   1.000  C
  C310     1.0000 0.70750  0.52640  0.12100  Biso   1.000  C
  C311     1.0000 0.20750  0.97360  0.62100  Biso   1.000  C
  C312     1.0000 0.70750  0.47360  0.62100  Biso   1.000  C
  C313     1.0000 0.99720  0.18370  0.37000  Biso   1.000  C
  C314     1.0000 0.49720  0.68370  0.37000  Biso   1.000  C
  C315     1.0000 0.99720  0.81630  0.87000  Biso   1.000  C
  C316     1.0000 0.49720  0.31630  0.87000  Biso   1.000  C
  C317     1.0000 0.00280  0.81630  0.63000  Biso   1.000  C
  C318     1.0000 0.50280  0.31630  0.63000  Biso   1.000  C
  C319     1.0000 0.00280  0.18370  0.13000  Biso   1.000  C
  C320     1.0000 0.50280  0.68370  0.13000  Biso   1.000  C
  C321     1.0000 0.00700  0.26400  0.29400  Biso   1.000  C
  C322     1.0000 0.50700  0.76400  0.29400  Biso   1.000  C
  C323     1.0000 0.00700  0.73600  0.79400  Biso   1.000  C
  C324     1.0000 0.50700  0.23600  0.79400  Biso   1.000  C
  C325     1.0000 0.99300  0.73600  0.70600  Biso   1.000  C
  C326     1.0000 0.49300  0.23600  0.70600  Biso   1.000  C
  C327     1.0000 0.99300  0.26400  0.20600  Biso   1.000  C
  C328     1.0000 0.49300  0.76400  0.20600  Biso   1.000  C
  C329     1.0000 0.98700  0.57500  0.48800  Biso   1.000  C
  C330     1.0000 0.48700  0.07500  0.48800  Biso   1.000  C
  C331     1.0000 0.98700  0.42500  0.98800  Biso   1.000  C
  C332     1.0000 0.48700  0.92500  0.98800  Biso   1.000  C
  C333     1.0000 0.01300  0.42500  0.51200  Biso   1.000  C
  C334     1.0000 0.51300  0.92500  0.51200  Biso   1.000  C
  C335     1.0000 0.01300  0.57500  0.01200  Biso   1.000  C
  C336     1.0000 0.51300  0.07500  0.01200  Biso   1.000  C
  C337     1.0000 0.48900  0.02500  0.65600  Biso   1.000  C
  C338     1.0000 0.98900  0.52500  0.65600  Biso   1.000  C
  C339     1.0000 0.48900  0.97500  0.15600  Biso   1.000  C
  C340     1.0000 0.98900  0.47500  0.15600  Biso   1.000  C
  C341     1.0000 0.51100  0.97500  0.34400  Biso   1.000  C
  C342     1.0000 0.01100  0.47500  0.34400  Biso   1.000  C
  C343     1.0000 0.51100  0.02500  0.84400  Biso   1.000  C
  C344     1.0000 0.01100  0.52500  0.84400  Biso   1.000  C
  C345     1.0000 0.93300  0.44700  0.53600  Biso   1.000  C
  C346     1.0000 0.43300  0.94700  0.53600  Biso   1.000  C
  C347     1.0000 0.93300  0.55300  0.03600  Biso   1.000  C
  C348     1.0000 0.43300  0.05300  0.03600  Biso   1.000  C
  C349     1.0000 0.06700  0.55300  0.46400  Biso   1.000  C
  C350     1.0000 0.56700  0.05300  0.46400  Biso   1.000  C
  C351     1.0000 0.06700  0.44700  0.96400  Biso   1.000  C
  C352     1.0000 0.56700  0.94700  0.96400  Biso   1.000  C
  C353     1.0000 0.99400  0.81500  0.23500  Biso   1.000  C
  C354     1.0000 0.49400  0.31500  0.23500  Biso   1.000  C
  C355     1.0000 0.99400  0.18500  0.73500  Biso   1.000  C
  C356     1.0000 0.49400  0.68500  0.73500  Biso   1.000  C
  C357     1.0000 0.00600  0.18500  0.76500  Biso   1.000  C
  C358     1.0000 0.50600  0.68500  0.76500  Biso   1.000  C
  C359     1.0000 0.00600  0.81500  0.26500  Biso   1.000  C
  C360     1.0000 0.50600  0.31500  0.26500  Biso   1.000  C
  C361     1.0000 0.03400  0.55200  0.65800  Biso   1.000  C
  C362     1.0000 0.53400  0.05200  0.65800  Biso   1.000  C
  C363     1.0000 0.03400  0.44800  0.15800  Biso   1.000  C
  C364     1.0000 0.53400  0.94800  0.15800  Biso   1.000  C
  C365     1.0000 0.96600  0.44800  0.34200  Biso   1.000  C
  C366     1.0000 0.46600  0.94800  0.34200  Biso   1.000  C
  C367     1.0000 0.96600  0.55200  0.84200  Biso   1.000  C
  C368     1.0000 0.46600  0.05200  0.84200  Biso   1.000  C
  C369     1.0000 0.97700  0.48400  0.51700  Biso   1.000  C
  C370     1.0000 0.47700  0.98400  0.51700  Biso   1.000  C
  C371     1.0000 0.97700  0.51600  0.01700  Biso   1.000  C
  C372     1.0000 0.47700  0.01600  0.01700  Biso   1.000  C
  C373     1.0000 0.02300  0.51600  0.48300  Biso   1.000  C
  C374     1.0000 0.52300  0.01600  0.48300  Biso   1.000  C
  C375     1.0000 0.02300  0.48400  0.98300  Biso   1.000  C
  C376     1.0000 0.52300  0.98400  0.98300  Biso   1.000  C
