data_image0
_cell_length_a       28.6841
_cell_length_b       9.2655
_cell_length_c       9.3005
_cell_angle_alpha    90
_cell_angle_beta     116.369
_cell_angle_gamma    90

_symmetry_space_group_name_H-M    "P 1"
_symmetry_int_tables_number       1

loop_
  _symmetry_equiv_pos_as_xyz
  'x, y, z'

loop_
  _atom_site_label
  _atom_site_occupancy
  _atom_site_fract_x
  _atom_site_fract_y
  _atom_site_fract_z
  _atom_site_thermal_displace_type
  _atom_site_B_iso_or_equiv
  _atom_site_type_symbol
  Cu1      1.0000 0.18800  0.82920  0.31400  Biso   1.000  Cu
  Cu2      1.0000 0.81200  0.82920  0.18600  Biso   1.000  Cu
  Cu3      1.0000 0.68800  0.32920  0.31400  Biso   1.000  Cu
  Cu4      1.0000 0.31200  0.32920  0.18600  Biso   1.000  Cu
  Cu5      1.0000 0.81200  0.17080  0.68600  Biso   1.000  Cu
  Cu6      1.0000 0.18800  0.17080  0.81400  Biso   1.000  Cu
  Cu7      1.0000 0.31200  0.67080  0.68600  Biso   1.000  Cu
  Cu8      1.0000 0.68800  0.67080  0.81400  Biso   1.000  Cu
  O1       1.0000 0.12840  0.07030  0.33840  Biso   1.000  O
  O2       1.0000 0.87160  0.07030  0.16160  Biso   1.000  O
  O3       1.0000 0.62840  0.57030  0.33840  Biso   1.000  O
  O4       1.0000 0.37160  0.57030  0.16160  Biso   1.000  O
  O5       1.0000 0.87160  0.92970  0.66160  Biso   1.000  O
  O6       1.0000 0.12840  0.92970  0.83840  Biso   1.000  O
  O7       1.0000 0.37160  0.42970  0.66160  Biso   1.000  O
  O8       1.0000 0.62840  0.42970  0.83840  Biso   1.000  O
  O9       1.0000 0.13790  0.17800  0.56680  Biso   1.000  O
  O10      1.0000 0.86210  0.17800  0.93320  Biso   1.000  O
  O11      1.0000 0.63790  0.67800  0.56680  Biso   1.000  O
  O12      1.0000 0.36210  0.67800  0.93320  Biso   1.000  O
  O13      1.0000 0.86210  0.82200  0.43320  Biso   1.000  O
  O14      1.0000 0.13790  0.82200  0.06680  Biso   1.000  O
  O15      1.0000 0.36210  0.32200  0.43320  Biso   1.000  O
  O16      1.0000 0.63790  0.32200  0.06680  Biso   1.000  O
  N1       1.0000 0.22040  0.01250  0.73720  Biso   1.000  N
  N2       1.0000 0.77960  0.01250  0.76280  Biso   1.000  N
  N3       1.0000 0.72040  0.51250  0.73720  Biso   1.000  N
  N4       1.0000 0.27960  0.51250  0.76280  Biso   1.000  N
  N5       1.0000 0.77960  0.98750  0.26280  Biso   1.000  N
  N6       1.0000 0.22040  0.98750  0.23720  Biso   1.000  N
  N7       1.0000 0.27960  0.48750  0.26280  Biso   1.000  N
  N8       1.0000 0.72040  0.48750  0.23720  Biso   1.000  N
  N9       1.0000 0.25710  0.90960  0.79320  Biso   1.000  N
  N10      1.0000 0.74290  0.90960  0.70680  Biso   1.000  N
  N11      1.0000 0.75710  0.40960  0.79320  Biso   1.000  N
  N12      1.0000 0.24290  0.40960  0.70680  Biso   1.000  N
  N13      1.0000 0.74290  0.09040  0.20680  Biso   1.000  N
  N14      1.0000 0.25710  0.09040  0.29320  Biso   1.000  N
  N15      1.0000 0.24290  0.59040  0.20680  Biso   1.000  N
  N16      1.0000 0.75710  0.59040  0.29320  Biso   1.000  N
  N17      1.0000 0.25130  0.82650  0.67060  Biso   1.000  N
  N18      1.0000 0.74870  0.82650  0.82940  Biso   1.000  N
  N19      1.0000 0.75130  0.32650  0.67060  Biso   1.000  N
  N20      1.0000 0.24870  0.32650  0.82940  Biso   1.000  N
  N21      1.0000 0.74870  0.17350  0.32940  Biso   1.000  N
  N22      1.0000 0.25130  0.17350  0.17060  Biso   1.000  N
  N23      1.0000 0.24870  0.67350  0.32940  Biso   1.000  N
  N24      1.0000 0.75130  0.67350  0.17060  Biso   1.000  N
  N25      1.0000 0.21170  0.87450  0.53790  Biso   1.000  N
  N26      1.0000 0.78830  0.87450  0.96210  Biso   1.000  N
  N27      1.0000 0.71170  0.37450  0.53790  Biso   1.000  N
  N28      1.0000 0.28830  0.37450  0.96210  Biso   1.000  N
  N29      1.0000 0.78830  0.12550  0.46210  Biso   1.000  N
  N30      1.0000 0.21170  0.12550  0.03790  Biso   1.000  N
  N31      1.0000 0.28830  0.62550  0.46210  Biso   1.000  N
  N32      1.0000 0.71170  0.62550  0.03790  Biso   1.000  N
  N33      1.0000 0.14320  0.66070  0.32290  Biso   1.000  N
  N34      1.0000 0.85680  0.66070  0.17710  Biso   1.000  N
  N35      1.0000 0.64320  0.16070  0.32290  Biso   1.000  N
  N36      1.0000 0.35680  0.16070  0.17710  Biso   1.000  N
  N37      1.0000 0.85680  0.33930  0.67710  Biso   1.000  N
  N38      1.0000 0.14320  0.33930  0.82290  Biso   1.000  N
  N39      1.0000 0.35680  0.83930  0.67710  Biso   1.000  N
  N40      1.0000 0.64320  0.83930  0.82290  Biso   1.000  N
  C1       1.0000 0.14910  0.08690  0.48480  Biso   1.000  C
  C2       1.0000 0.85090  0.08690  0.01520  Biso   1.000  C
  C3       1.0000 0.64910  0.58690  0.48480  Biso   1.000  C
  C4       1.0000 0.35090  0.58690  0.01520  Biso   1.000  C
  C5       1.0000 0.85090  0.91310  0.51520  Biso   1.000  C
  C6       1.0000 0.14910  0.91310  0.98480  Biso   1.000  C
  C7       1.0000 0.35090  0.41310  0.51520  Biso   1.000  C
  C8       1.0000 0.64910  0.41310  0.98480  Biso   1.000  C
  C9       1.0000 0.19330  0.98850  0.58130  Biso   1.000  C
  C10      1.0000 0.80670  0.98850  0.91870  Biso   1.000  C
  C11      1.0000 0.69330  0.48850  0.58130  Biso   1.000  C
  C12      1.0000 0.30670  0.48850  0.91870  Biso   1.000  C
  C13      1.0000 0.80670  0.01150  0.41870  Biso   1.000  C
  C14      1.0000 0.19330  0.01150  0.08130  Biso   1.000  C
  C15      1.0000 0.30670  0.51150  0.41870  Biso   1.000  C
  C16      1.0000 0.69330  0.51150  0.08130  Biso   1.000  C
  C17      1.0000 0.11210  0.72000  0.38080  Biso   1.000  C
  C18      1.0000 0.88790  0.72000  0.11920  Biso   1.000  C
  C19      1.0000 0.61210  0.22000  0.38080  Biso   1.000  C
  C20      1.0000 0.38790  0.22000  0.11920  Biso   1.000  C
  C21      1.0000 0.88790  0.28000  0.61920  Biso   1.000  C
  C22      1.0000 0.11210  0.28000  0.88080  Biso   1.000  C
  C23      1.0000 0.38790  0.78000  0.61920  Biso   1.000  C
  C24      1.0000 0.61210  0.78000  0.88080  Biso   1.000  C
  C25      1.0000 0.07460  0.64500  0.40690  Biso   1.000  C
  C26      1.0000 0.92540  0.64500  0.09310  Biso   1.000  C
  C27      1.0000 0.57460  0.14500  0.40690  Biso   1.000  C
  C28      1.0000 0.42540  0.14500  0.09310  Biso   1.000  C
  C29      1.0000 0.92540  0.35500  0.59310  Biso   1.000  C
  C30      1.0000 0.07460  0.35500  0.90690  Biso   1.000  C
  C31      1.0000 0.42540  0.85500  0.59310  Biso   1.000  C
  C32      1.0000 0.57460  0.85500  0.90690  Biso   1.000  C
  C33      1.0000 0.06924  0.49870  0.36990  Biso   1.000  C
  C34      1.0000 0.93076  0.49870  0.13010  Biso   1.000  C
  C35      1.0000 0.56924  0.99870  0.36990  Biso   1.000  C
  C36      1.0000 0.43076  0.99870  0.13010  Biso   1.000  C
  C37      1.0000 0.93076  0.50130  0.63010  Biso   1.000  C
  C38      1.0000 0.06924  0.50130  0.86990  Biso   1.000  C
  C39      1.0000 0.43076  0.00130  0.63010  Biso   1.000  C
  C40      1.0000 0.56924  0.00130  0.86990  Biso   1.000  C
  C41      1.0000 0.10070  0.43390  0.31000  Biso   1.000  C
  C42      1.0000 0.89930  0.43390  0.19000  Biso   1.000  C
  C43      1.0000 0.60070  0.93390  0.31000  Biso   1.000  C
  C44      1.0000 0.39930  0.93390  0.19000  Biso   1.000  C
  C45      1.0000 0.89930  0.56610  0.69000  Biso   1.000  C
  C46      1.0000 0.10070  0.56610  0.81000  Biso   1.000  C
  C47      1.0000 0.39930  0.06610  0.69000  Biso   1.000  C
  C48      1.0000 0.60070  0.06610  0.81000  Biso   1.000  C
  C49      1.0000 0.13710  0.51870  0.28830  Biso   1.000  C
  C50      1.0000 0.86290  0.51870  0.21170  Biso   1.000  C
  C51      1.0000 0.63710  0.01870  0.28830  Biso   1.000  C
  C52      1.0000 0.36290  0.01870  0.21170  Biso   1.000  C
  C53      1.0000 0.86290  0.48130  0.71170  Biso   1.000  C
  C54      1.0000 0.13710  0.48130  0.78830  Biso   1.000  C
  C55      1.0000 0.36290  0.98130  0.71170  Biso   1.000  C
  C56      1.0000 0.63710  0.98130  0.78830  Biso   1.000  C
  C57      1.0000 0.02929  0.41000  0.39526  Biso   1.000  C
  C58      1.0000 0.97071  0.41000  0.10474  Biso   1.000  C
  C59      1.0000 0.52929  0.91000  0.39526  Biso   1.000  C
  C60      1.0000 0.47071  0.91000  0.10474  Biso   1.000  C
  C61      1.0000 0.97071  0.59000  0.60474  Biso   1.000  C
  C62      1.0000 0.02929  0.59000  0.89526  Biso   1.000  C
  C63      1.0000 0.47071  0.09000  0.60474  Biso   1.000  C
  C64      1.0000 0.52929  0.09000  0.89526  Biso   1.000  C
  C65      1.0000 0.00000  0.31590  0.25000  Biso   1.000  C
  C66      1.0000 0.50000  0.81590  0.25000  Biso   1.000  C
  C67      1.0000 0.00000  0.68410  0.75000  Biso   1.000  C
  C68      1.0000 0.50000  0.18410  0.75000  Biso   1.000  C
  H1       1.0000 0.11617  0.82114  0.40582  Biso   1.000  H
  H2       1.0000 0.88383  0.82114  0.09418  Biso   1.000  H
  H3       1.0000 0.61617  0.32114  0.40582  Biso   1.000  H
  H4       1.0000 0.38383  0.32114  0.09418  Biso   1.000  H
  H5       1.0000 0.88383  0.17886  0.59418  Biso   1.000  H
  H6       1.0000 0.11617  0.17886  0.90582  Biso   1.000  H
  H7       1.0000 0.38383  0.67886  0.59418  Biso   1.000  H
  H8       1.0000 0.61617  0.67886  0.90582  Biso   1.000  H
  H9       1.0000 0.05337  0.69211  0.44851  Biso   1.000  H
  H10      1.0000 0.94663  0.69211  0.05149  Biso   1.000  H
  H11      1.0000 0.55337  0.19211  0.44851  Biso   1.000  H
  H12      1.0000 0.44663  0.19211  0.05149  Biso   1.000  H
  H13      1.0000 0.94663  0.30789  0.55149  Biso   1.000  H
  H14      1.0000 0.05337  0.30789  0.94851  Biso   1.000  H
  H15      1.0000 0.44663  0.80789  0.55149  Biso   1.000  H
  H16      1.0000 0.55337  0.80789  0.94851  Biso   1.000  H
  H17      1.0000 0.09740  0.33292  0.28422  Biso   1.000  H
  H18      1.0000 0.90260  0.33292  0.21578  Biso   1.000  H
  H19      1.0000 0.59740  0.83292  0.28422  Biso   1.000  H
  H20      1.0000 0.40260  0.83292  0.21578  Biso   1.000  H
  H21      1.0000 0.90260  0.66708  0.71578  Biso   1.000  H
  H22      1.0000 0.09740  0.66708  0.78422  Biso   1.000  H
  H23      1.0000 0.40260  0.16708  0.71578  Biso   1.000  H
  H24      1.0000 0.59740  0.16708  0.78422  Biso   1.000  H
  H25      1.0000 0.15878  0.47405  0.24685  Biso   1.000  H
  H26      1.0000 0.84122  0.47405  0.25315  Biso   1.000  H
  H27      1.0000 0.65878  0.97405  0.24685  Biso   1.000  H
  H28      1.0000 0.34122  0.97405  0.25315  Biso   1.000  H
  H29      1.0000 0.84122  0.52595  0.75315  Biso   1.000  H
  H30      1.0000 0.15878  0.52595  0.74685  Biso   1.000  H
  H31      1.0000 0.34122  0.02595  0.75315  Biso   1.000  H
  H32      1.0000 0.65878  0.02595  0.74685  Biso   1.000  H
  H33      1.0000 0.04647  0.35031  0.48850  Biso   1.000  H
  H34      1.0000 0.95353  0.35031  0.01150  Biso   1.000  H
  H35      1.0000 0.54647  0.85031  0.48850  Biso   1.000  H
  H36      1.0000 0.45353  0.85031  0.01150  Biso   1.000  H
  H37      1.0000 0.95353  0.64969  0.51150  Biso   1.000  H
  H38      1.0000 0.04647  0.64969  0.98850  Biso   1.000  H
  H39      1.0000 0.45353  0.14969  0.51150  Biso   1.000  H
  H40      1.0000 0.54647  0.14969  0.98850  Biso   1.000  H
  H41      1.0000 0.00531  0.47325  0.41038  Biso   1.000  H
  H42      1.0000 0.99469  0.47325  0.08962  Biso   1.000  H
  H43      1.0000 0.50531  0.97325  0.41038  Biso   1.000  H
  H44      1.0000 0.49469  0.97325  0.08962  Biso   1.000  H
  H45      1.0000 0.99469  0.52675  0.58962  Biso   1.000  H
  H46      1.0000 0.00531  0.52675  0.91038  Biso   1.000  H
  H47      1.0000 0.49469  0.02675  0.58962  Biso   1.000  H
  H48      1.0000 0.50531  0.02675  0.91038  Biso   1.000  H
  H49      1.0000 0.02417  0.25600  0.23170  Biso   1.000  H
  H50      1.0000 0.97583  0.25600  0.26830  Biso   1.000  H
  H51      1.0000 0.52417  0.75600  0.23170  Biso   1.000  H
  H52      1.0000 0.47583  0.75600  0.26830  Biso   1.000  H
  H53      1.0000 0.97583  0.74400  0.76830  Biso   1.000  H
  H54      1.0000 0.02417  0.74400  0.73170  Biso   1.000  H
  H55      1.0000 0.47583  0.24400  0.76830  Biso   1.000  H
  H56      1.0000 0.52417  0.24400  0.73170  Biso   1.000  H
  Ne1      1.0000 0.00000  0.00800  0.25000  Biso   1.000  Ne
  Ne2      1.0000 0.50000  0.50800  0.25000  Biso   1.000  Ne
  Ne3      1.0000 0.00000  0.99200  0.75000  Biso   1.000  Ne
  Ne4      1.0000 0.50000  0.49200  0.75000  Biso   1.000  Ne
  Ne5      1.0000 0.00000  0.00000  0.00000  Biso   1.000  Ne
  Ne6      1.0000 0.00000  0.00000  0.50000  Biso   1.000  Ne
  Ne7      1.0000 0.50000  0.50000  0.00000  Biso   1.000  Ne
  Ne8      1.0000 0.50000  0.50000  0.50000  Biso   1.000  Ne
