data_image0
_cell_length_a       17.7551
_cell_length_b       17.7551
_cell_length_c       9.6219
_cell_angle_alpha    90
_cell_angle_beta     90
_cell_angle_gamma    120

_symmetry_space_group_name_H-M    "P 1"
_symmetry_int_tables_number       1

loop_
  _symmetry_equiv_pos_as_xyz
  'x, y, z'

loop_
  _atom_site_label
  _atom_site_occupancy
  _atom_site_fract_x
  _atom_site_fract_y
  _atom_site_fract_z
  _atom_site_thermal_displace_type
  _atom_site_B_iso_or_equiv
  _atom_site_type_symbol
  Cu1      1.0000 0.85013  0.41190  0.49716  Biso   1.000  Cu
  Cu2      1.0000 0.58810  0.43823  0.83049  Biso   1.000  Cu
  Cu3      1.0000 0.56177  0.14987  0.16383  Biso   1.000  Cu
  Cu4      1.0000 0.41190  0.85013  0.50284  Biso   1.000  Cu
  Cu5      1.0000 0.43823  0.58810  0.16951  Biso   1.000  Cu
  Cu6      1.0000 0.14987  0.56177  0.83617  Biso   1.000  Cu
  O1       1.0000 0.11350  0.54460  0.63960  Biso   1.000  O
  O2       1.0000 0.45540  0.56890  0.97293  Biso   1.000  O
  O3       1.0000 0.43110  0.88650  0.30627  Biso   1.000  O
  O4       1.0000 0.54460  0.11350  0.36040  Biso   1.000  O
  O5       1.0000 0.56890  0.45540  0.02707  Biso   1.000  O
  O6       1.0000 0.88650  0.43110  0.69373  Biso   1.000  O
  O7       1.0000 0.96380  0.42460  0.44510  Biso   1.000  O
  O8       1.0000 0.57540  0.53920  0.77843  Biso   1.000  O
  O9       1.0000 0.46080  0.03620  0.11177  Biso   1.000  O
  O10      1.0000 0.42460  0.96380  0.55490  Biso   1.000  O
  O11      1.0000 0.53920  0.57540  0.22157  Biso   1.000  O
  O12      1.0000 0.03620  0.46080  0.88823  Biso   1.000  O
  O13      1.0000 0.20730  0.49740  0.65610  Biso   1.000  O
  O14      1.0000 0.50260  0.70990  0.98943  Biso   1.000  O
  O15      1.0000 0.29010  0.79270  0.32277  Biso   1.000  O
  O16      1.0000 0.49740  0.20730  0.34390  Biso   1.000  O
  O17      1.0000 0.70990  0.50260  0.01057  Biso   1.000  O
  O18      1.0000 0.79270  0.29010  0.67723  Biso   1.000  O
  O19      1.0000 0.99310  0.55870  0.40920  Biso   1.000  O
  O20      1.0000 0.44130  0.43440  0.74253  Biso   1.000  O
  O21      1.0000 0.56560  0.00690  0.07587  Biso   1.000  O
  O22      1.0000 0.55870  0.99310  0.59080  Biso   1.000  O
  O23      1.0000 0.43440  0.44130  0.25747  Biso   1.000  O
  O24      1.0000 0.00690  0.56560  0.92413  Biso   1.000  O
  N1       1.0000 0.20690  0.55290  0.00530  Biso   1.000  N
  N2       1.0000 0.44710  0.65400  0.33863  Biso   1.000  N
  N3       1.0000 0.34600  0.79310  0.67197  Biso   1.000  N
  N4       1.0000 0.55290  0.20690  0.99470  Biso   1.000  N
  N5       1.0000 0.65400  0.44710  0.66137  Biso   1.000  N
  N6       1.0000 0.79310  0.34600  0.32803  Biso   1.000  N
  N7       1.0000 0.31730  0.55770  0.13010  Biso   1.000  N
  N8       1.0000 0.44230  0.75960  0.46343  Biso   1.000  N
  N9       1.0000 0.24040  0.68270  0.79677  Biso   1.000  N
  N10      1.0000 0.55770  0.31730  0.86990  Biso   1.000  N
  N11      1.0000 0.75960  0.44230  0.53657  Biso   1.000  N
  N12      1.0000 0.68270  0.24040  0.20323  Biso   1.000  N
  C1       1.0000 0.24170  0.53120  0.36670  Biso   1.000  C
  C2       1.0000 0.46880  0.71050  0.70003  Biso   1.000  C
  C3       1.0000 0.28950  0.75830  0.03337  Biso   1.000  C
  C4       1.0000 0.53120  0.24170  0.63330  Biso   1.000  C
  C5       1.0000 0.71050  0.46880  0.29997  Biso   1.000  C
  C6       1.0000 0.75830  0.28950  0.96663  Biso   1.000  C
  H1       1.0000 0.28582  0.53156  0.41933  Biso   1.000  H
  H2       1.0000 0.46844  0.75426  0.75266  Biso   1.000  H
  H3       1.0000 0.24574  0.71418  0.08600  Biso   1.000  H
  H4       1.0000 0.53156  0.28582  0.58067  Biso   1.000  H
  H5       1.0000 0.75426  0.46844  0.24734  Biso   1.000  H
  H6       1.0000 0.71418  0.24574  0.91400  Biso   1.000  H
  C7       1.0000 0.18460  0.54230  0.14600  Biso   1.000  C
  C8       1.0000 0.45770  0.64230  0.47933  Biso   1.000  C
  C9       1.0000 0.35770  0.81540  0.81267  Biso   1.000  C
  C10      1.0000 0.54230  0.18460  0.85400  Biso   1.000  C
  C11      1.0000 0.64230  0.45770  0.52067  Biso   1.000  C
  C12      1.0000 0.81540  0.35770  0.18733  Biso   1.000  C
  C13      1.0000 0.11040  0.53330  0.20820  Biso   1.000  C
  C14      1.0000 0.46670  0.57710  0.54153  Biso   1.000  C
  C15      1.0000 0.42290  0.88960  0.87487  Biso   1.000  C
  C16      1.0000 0.53330  0.11040  0.79180  Biso   1.000  C
  C17      1.0000 0.57710  0.46670  0.45847  Biso   1.000  C
  C18      1.0000 0.88960  0.42290  0.12513  Biso   1.000  C
  H7       1.0000 0.06764  0.53506  0.15475  Biso   1.000  H
  H8       1.0000 0.46494  0.53258  0.48808  Biso   1.000  H
  H9       1.0000 0.46742  0.93236  0.82142  Biso   1.000  H
  H10      1.0000 0.53506  0.06764  0.84525  Biso   1.000  H
  H11      1.0000 0.53258  0.46494  0.51192  Biso   1.000  H
  H12      1.0000 0.93236  0.46742  0.17858  Biso   1.000  H
  C19      1.0000 0.10000  0.52170  0.35080  Biso   1.000  C
  C20      1.0000 0.47830  0.57830  0.68413  Biso   1.000  C
  C21      1.0000 0.42170  0.90000  0.01747  Biso   1.000  C
  C22      1.0000 0.52170  0.10000  0.64920  Biso   1.000  C
  C23      1.0000 0.57830  0.47830  0.31587  Biso   1.000  C
  C24      1.0000 0.90000  0.42170  0.98253  Biso   1.000  C
  C25      1.0000 0.16580  0.51890  0.42890  Biso   1.000  C
  C26      1.0000 0.48110  0.64690  0.76223  Biso   1.000  C
  C27      1.0000 0.35310  0.83420  0.09557  Biso   1.000  C
  C28      1.0000 0.51890  0.16580  0.57110  Biso   1.000  C
  C29      1.0000 0.64690  0.48110  0.23777  Biso   1.000  C
  C30      1.0000 0.83420  0.35310  0.90443  Biso   1.000  C
  C31      1.0000 0.28600  0.56210  0.00670  Biso   1.000  C
  C32      1.0000 0.43790  0.72390  0.34003  Biso   1.000  C
  C33      1.0000 0.27610  0.71400  0.67337  Biso   1.000  C
  C34      1.0000 0.56210  0.28600  0.99330  Biso   1.000  C
  C35      1.0000 0.72390  0.43790  0.65997  Biso   1.000  C
  C36      1.0000 0.71400  0.27610  0.32663  Biso   1.000  C
  H13      1.0000 0.31777  0.57107  0.92544  Biso   1.000  H
  H14      1.0000 0.42893  0.74670  0.25877  Biso   1.000  H
  H15      1.0000 0.25330  0.68223  0.59211  Biso   1.000  H
  H16      1.0000 0.57107  0.31777  0.07456  Biso   1.000  H
  H17      1.0000 0.74670  0.42893  0.74123  Biso   1.000  H
  H18      1.0000 0.68223  0.25330  0.40789  Biso   1.000  H
  C37      1.0000 0.16090  0.51770  0.58580  Biso   1.000  C
  C38      1.0000 0.48230  0.64320  0.91913  Biso   1.000  C
  C39      1.0000 0.35680  0.83910  0.25247  Biso   1.000  C
  C40      1.0000 0.51770  0.16090  0.41420  Biso   1.000  C
  C41      1.0000 0.64320  0.48230  0.08087  Biso   1.000  C
  C42      1.0000 0.83910  0.35680  0.74753  Biso   1.000  C
  C43      1.0000 0.25000  0.54300  0.22180  Biso   1.000  C
  C44      1.0000 0.45700  0.70700  0.55513  Biso   1.000  C
  C45      1.0000 0.29300  0.75000  0.88847  Biso   1.000  C
  C46      1.0000 0.54300  0.25000  0.77820  Biso   1.000  C
  C47      1.0000 0.70700  0.45700  0.44487  Biso   1.000  C
  C48      1.0000 0.75000  0.29300  0.11153  Biso   1.000  C
  C49      1.0000 0.01350  0.50080  0.41030  Biso   1.000  C
  C50      1.0000 0.49920  0.51270  0.74363  Biso   1.000  C
  C51      1.0000 0.48730  0.98650  0.07697  Biso   1.000  C
  C52      1.0000 0.50080  0.01350  0.58970  Biso   1.000  C
  C53      1.0000 0.51270  0.49920  0.25637  Biso   1.000  C
  C54      1.0000 0.98650  0.48730  0.92303  Biso   1.000  C
