data_image0
_cell_length_a       18.6777
_cell_length_b       18.6777
_cell_length_c       54.443
_cell_angle_alpha    90
_cell_angle_beta     90
_cell_angle_gamma    120

_symmetry_space_group_name_H-M    "P 1"
_symmetry_int_tables_number       1

loop_
  _symmetry_equiv_pos_as_xyz
  'x, y, z'

loop_
  _atom_site_label
  _atom_site_occupancy
  _atom_site_fract_x
  _atom_site_fract_y
  _atom_site_fract_z
  _atom_site_thermal_displace_type
  _atom_site_B_iso_or_equiv
  _atom_site_type_symbol
  Cu1      1.0000 0.47641  0.95275  0.01995  Biso   1.000  Cu
  Cu2      1.0000 0.04725  0.52366  0.01995  Biso   1.000  Cu
  Cu3      1.0000 0.47634  0.52359  0.01995  Biso   1.000  Cu
  Cu4      1.0000 0.14308  0.28608  0.35328  Biso   1.000  Cu
  Cu5      1.0000 0.71392  0.85699  0.35328  Biso   1.000  Cu
  Cu6      1.0000 0.14301  0.85692  0.35328  Biso   1.000  Cu
  Cu7      1.0000 0.80974  0.61942  0.68661  Biso   1.000  Cu
  Cu8      1.0000 0.38058  0.19033  0.68661  Biso   1.000  Cu
  Cu9      1.0000 0.80967  0.19026  0.68661  Biso   1.000  Cu
  Cu10     1.0000 0.52359  0.04725  0.98005  Biso   1.000  Cu
  Cu11     1.0000 0.95275  0.47634  0.98005  Biso   1.000  Cu
  Cu12     1.0000 0.52366  0.47641  0.98005  Biso   1.000  Cu
  Cu13     1.0000 0.19026  0.38058  0.31339  Biso   1.000  Cu
  Cu14     1.0000 0.61942  0.80967  0.31339  Biso   1.000  Cu
  Cu15     1.0000 0.19033  0.80974  0.31339  Biso   1.000  Cu
  Cu16     1.0000 0.85692  0.71392  0.64672  Biso   1.000  Cu
  Cu17     1.0000 0.28608  0.14301  0.64672  Biso   1.000  Cu
  Cu18     1.0000 0.85699  0.14308  0.64672  Biso   1.000  Cu
  C1       1.0000 0.36150  0.90690  0.98067  Biso   1.000  C
  C2       1.0000 0.09310  0.45460  0.98067  Biso   1.000  C
  C3       1.0000 0.54540  0.63850  0.98067  Biso   1.000  C
  C4       1.0000 0.02817  0.24023  0.31400  Biso   1.000  C
  C5       1.0000 0.75977  0.78793  0.31400  Biso   1.000  C
  C6       1.0000 0.21207  0.97183  0.31400  Biso   1.000  C
  C7       1.0000 0.69483  0.57357  0.64734  Biso   1.000  C
  C8       1.0000 0.42643  0.12127  0.64734  Biso   1.000  C
  C9       1.0000 0.87873  0.30517  0.64734  Biso   1.000  C
  C10      1.0000 0.63850  0.09310  0.01933  Biso   1.000  C
  C11      1.0000 0.90690  0.54540  0.01933  Biso   1.000  C
  C12      1.0000 0.45460  0.36150  0.01933  Biso   1.000  C
  C13      1.0000 0.30517  0.42643  0.35266  Biso   1.000  C
  C14      1.0000 0.57357  0.87873  0.35266  Biso   1.000  C
  C15      1.0000 0.12127  0.69483  0.35266  Biso   1.000  C
  C16      1.0000 0.97183  0.75977  0.68600  Biso   1.000  C
  C17      1.0000 0.24023  0.21207  0.68600  Biso   1.000  C
  C18      1.0000 0.78793  0.02817  0.68600  Biso   1.000  C
  O1       1.0000 0.37141  0.88949  0.00216  Biso   1.000  O
  O2       1.0000 0.11051  0.48192  0.00216  Biso   1.000  O
  O3       1.0000 0.51808  0.62859  0.00216  Biso   1.000  O
  O4       1.0000 0.03808  0.22282  0.33549  Biso   1.000  O
  O5       1.0000 0.77718  0.81525  0.33549  Biso   1.000  O
  O6       1.0000 0.18475  0.96192  0.33549  Biso   1.000  O
  O7       1.0000 0.70474  0.55616  0.66883  Biso   1.000  O
  O8       1.0000 0.44384  0.14859  0.66883  Biso   1.000  O
  O9       1.0000 0.85141  0.29526  0.66883  Biso   1.000  O
  O10      1.0000 0.62859  0.11051  0.99784  Biso   1.000  O
  O11      1.0000 0.88949  0.51808  0.99784  Biso   1.000  O
  O12      1.0000 0.48192  0.37141  0.99784  Biso   1.000  O
  O13      1.0000 0.29526  0.44384  0.33117  Biso   1.000  O
  O14      1.0000 0.55616  0.85141  0.33117  Biso   1.000  O
  O15      1.0000 0.14859  0.70474  0.33117  Biso   1.000  O
  O16      1.0000 0.96192  0.77718  0.66451  Biso   1.000  O
  O17      1.0000 0.22282  0.18475  0.66451  Biso   1.000  O
  O18      1.0000 0.81525  0.03808  0.66451  Biso   1.000  O
  C19      1.0000 0.28260  0.84730  0.96828  Biso   1.000  C
  C20      1.0000 0.15270  0.43530  0.96828  Biso   1.000  C
  C21      1.0000 0.56470  0.71740  0.96828  Biso   1.000  C
  C22      1.0000 0.94927  0.18063  0.30161  Biso   1.000  C
  C23      1.0000 0.81937  0.76863  0.30161  Biso   1.000  C
  C24      1.0000 0.23137  0.05073  0.30161  Biso   1.000  C
  C25      1.0000 0.61593  0.51397  0.63495  Biso   1.000  C
  C26      1.0000 0.48603  0.10197  0.63495  Biso   1.000  C
  C27      1.0000 0.89803  0.38407  0.63495  Biso   1.000  C
  C28      1.0000 0.71740  0.15270  0.03172  Biso   1.000  C
  C29      1.0000 0.84730  0.56470  0.03172  Biso   1.000  C
  C30      1.0000 0.43530  0.28260  0.03172  Biso   1.000  C
  C31      1.0000 0.38407  0.48603  0.36505  Biso   1.000  C
  C32      1.0000 0.51397  0.89803  0.36505  Biso   1.000  C
  C33      1.0000 0.10197  0.61593  0.36505  Biso   1.000  C
  C34      1.0000 0.05073  0.81937  0.69839  Biso   1.000  C
  C35      1.0000 0.18063  0.23137  0.69839  Biso   1.000  C
  C36      1.0000 0.76863  0.94927  0.69839  Biso   1.000  C
  C37      1.0000 0.26850  0.86100  0.94429  Biso   1.000  C
  C38      1.0000 0.13900  0.40750  0.94429  Biso   1.000  C
  C39      1.0000 0.59250  0.73150  0.94429  Biso   1.000  C
  C40      1.0000 0.93517  0.19433  0.27762  Biso   1.000  C
  C41      1.0000 0.80567  0.74083  0.27762  Biso   1.000  C
  C42      1.0000 0.25917  0.06483  0.27762  Biso   1.000  C
  C43      1.0000 0.60183  0.52767  0.61096  Biso   1.000  C
  C44      1.0000 0.47233  0.07417  0.61096  Biso   1.000  C
  C45      1.0000 0.92583  0.39817  0.61096  Biso   1.000  C
  C46      1.0000 0.73150  0.13900  0.05571  Biso   1.000  C
  C47      1.0000 0.86100  0.59250  0.05571  Biso   1.000  C
  C48      1.0000 0.40750  0.26850  0.05571  Biso   1.000  C
  C49      1.0000 0.39817  0.47233  0.38904  Biso   1.000  C
  C50      1.0000 0.52767  0.92583  0.38904  Biso   1.000  C
  C51      1.0000 0.07417  0.60183  0.38904  Biso   1.000  C
  C52      1.0000 0.06483  0.80567  0.72238  Biso   1.000  C
  C53      1.0000 0.19433  0.25917  0.72238  Biso   1.000  C
  C54      1.0000 0.74083  0.93517  0.72238  Biso   1.000  C
  H1       1.0000 0.30610  0.90950  0.93630  Biso   1.000  H
  H2       1.0000 0.09050  0.39660  0.93630  Biso   1.000  H
  H3       1.0000 0.60340  0.69390  0.93630  Biso   1.000  H
  H4       1.0000 0.97277  0.24283  0.26963  Biso   1.000  H
  H5       1.0000 0.75717  0.72993  0.26963  Biso   1.000  H
  H6       1.0000 0.27007  0.02723  0.26963  Biso   1.000  H
  H7       1.0000 0.63943  0.57617  0.60297  Biso   1.000  H
  H8       1.0000 0.42383  0.06327  0.60297  Biso   1.000  H
  H9       1.0000 0.93673  0.36057  0.60297  Biso   1.000  H
  H10      1.0000 0.69390  0.09050  0.06370  Biso   1.000  H
  H11      1.0000 0.90950  0.60340  0.06370  Biso   1.000  H
  H12      1.0000 0.39660  0.30610  0.06370  Biso   1.000  H
  H13      1.0000 0.36057  0.42383  0.39703  Biso   1.000  H
  H14      1.0000 0.57617  0.93673  0.39703  Biso   1.000  H
  H15      1.0000 0.06327  0.63943  0.39703  Biso   1.000  H
  H16      1.0000 0.02723  0.75717  0.73037  Biso   1.000  H
  H17      1.0000 0.24283  0.27007  0.73037  Biso   1.000  H
  H18      1.0000 0.72993  0.97277  0.73037  Biso   1.000  H
  C55      1.0000 0.19760  0.80200  0.93195  Biso   1.000  C
  C56      1.0000 0.19800  0.39560  0.93195  Biso   1.000  C
  C57      1.0000 0.60440  0.80240  0.93195  Biso   1.000  C
  C58      1.0000 0.86427  0.13533  0.26528  Biso   1.000  C
  C59      1.0000 0.86467  0.72893  0.26528  Biso   1.000  C
  C60      1.0000 0.27107  0.13573  0.26528  Biso   1.000  C
  C61      1.0000 0.53093  0.46867  0.59862  Biso   1.000  C
  C62      1.0000 0.53133  0.06227  0.59862  Biso   1.000  C
  C63      1.0000 0.93773  0.46907  0.59862  Biso   1.000  C
  C64      1.0000 0.80240  0.19800  0.06805  Biso   1.000  C
  C65      1.0000 0.80200  0.60440  0.06805  Biso   1.000  C
  C66      1.0000 0.39560  0.19760  0.06805  Biso   1.000  C
  C67      1.0000 0.46907  0.53133  0.40138  Biso   1.000  C
  C68      1.0000 0.46867  0.93773  0.40138  Biso   1.000  C
  C69      1.0000 0.06227  0.53093  0.40138  Biso   1.000  C
  C70      1.0000 0.13573  0.86467  0.73472  Biso   1.000  C
  C71      1.0000 0.13533  0.27107  0.73472  Biso   1.000  C
  C72      1.0000 0.72893  0.86427  0.73472  Biso   1.000  C
  C73      1.0000 0.18350  0.81660  0.88435  Biso   1.000  C
  C74      1.0000 0.18340  0.36690  0.88435  Biso   1.000  C
  C75      1.0000 0.63310  0.81650  0.88435  Biso   1.000  C
  C76      1.0000 0.85017  0.14993  0.21768  Biso   1.000  C
  C77      1.0000 0.85007  0.70023  0.21768  Biso   1.000  C
  C78      1.0000 0.29977  0.14983  0.21768  Biso   1.000  C
  C79      1.0000 0.51683  0.48327  0.55102  Biso   1.000  C
  C80      1.0000 0.51673  0.03357  0.55102  Biso   1.000  C
  C81      1.0000 0.96643  0.48317  0.55102  Biso   1.000  C
  C82      1.0000 0.81650  0.18340  0.11565  Biso   1.000  C
  C83      1.0000 0.81660  0.63310  0.11565  Biso   1.000  C
  C84      1.0000 0.36690  0.18350  0.11565  Biso   1.000  C
  C85      1.0000 0.48317  0.51673  0.44898  Biso   1.000  C
  C86      1.0000 0.48327  0.96643  0.44898  Biso   1.000  C
  C87      1.0000 0.03357  0.51683  0.44898  Biso   1.000  C
  C88      1.0000 0.14983  0.85007  0.78232  Biso   1.000  C
  C89      1.0000 0.14993  0.29977  0.78232  Biso   1.000  C
  C90      1.0000 0.70023  0.85017  0.78232  Biso   1.000  C
  C91      1.0000 0.18690  0.81350  0.90598  Biso   1.000  C
  C92      1.0000 0.18650  0.37340  0.90598  Biso   1.000  C
  C93      1.0000 0.62660  0.81310  0.90598  Biso   1.000  C
  C94      1.0000 0.85357  0.14683  0.23931  Biso   1.000  C
  C95      1.0000 0.85317  0.70673  0.23931  Biso   1.000  C
  C96      1.0000 0.29327  0.14643  0.23931  Biso   1.000  C
  C97      1.0000 0.52023  0.48017  0.57265  Biso   1.000  C
  C98      1.0000 0.51983  0.04007  0.57265  Biso   1.000  C
  C99      1.0000 0.95993  0.47977  0.57265  Biso   1.000  C
  C100     1.0000 0.81310  0.18650  0.09402  Biso   1.000  C
  C101     1.0000 0.81350  0.62660  0.09402  Biso   1.000  C
  C102     1.0000 0.37340  0.18690  0.09402  Biso   1.000  C
  C103     1.0000 0.47977  0.51983  0.42735  Biso   1.000  C
  C104     1.0000 0.48017  0.95993  0.42735  Biso   1.000  C
  C105     1.0000 0.04007  0.52023  0.42735  Biso   1.000  C
  C106     1.0000 0.14643  0.85317  0.76069  Biso   1.000  C
  C107     1.0000 0.14683  0.29327  0.76069  Biso   1.000  C
  C108     1.0000 0.70673  0.85357  0.76069  Biso   1.000  C
  C109     1.0000 0.23680  0.89140  0.84530  Biso   1.000  C
  C110     1.0000 0.10860  0.34540  0.84530  Biso   1.000  C
  C111     1.0000 0.65460  0.76320  0.84530  Biso   1.000  C
  C112     1.0000 0.90347  0.22473  0.17863  Biso   1.000  C
  C113     1.0000 0.77527  0.67873  0.17863  Biso   1.000  C
  C114     1.0000 0.32127  0.09653  0.17863  Biso   1.000  C
  C115     1.0000 0.57013  0.55807  0.51197  Biso   1.000  C
  C116     1.0000 0.44193  0.01207  0.51197  Biso   1.000  C
  C117     1.0000 0.98793  0.42987  0.51197  Biso   1.000  C
  C118     1.0000 0.76320  0.10860  0.15470  Biso   1.000  C
  C119     1.0000 0.89140  0.65460  0.15470  Biso   1.000  C
  C120     1.0000 0.34540  0.23680  0.15470  Biso   1.000  C
  C121     1.0000 0.42987  0.44193  0.48803  Biso   1.000  C
  C122     1.0000 0.55807  0.98793  0.48803  Biso   1.000  C
  C123     1.0000 0.01207  0.57013  0.48803  Biso   1.000  C
  C124     1.0000 0.09653  0.77527  0.82137  Biso   1.000  C
  C125     1.0000 0.22473  0.32127  0.82137  Biso   1.000  C
  C126     1.0000 0.67873  0.90347  0.82137  Biso   1.000  C
  C127     1.0000 0.17570  0.82440  0.85883  Biso   1.000  C
  C128     1.0000 0.17560  0.35130  0.85883  Biso   1.000  C
  C129     1.0000 0.64870  0.82430  0.85883  Biso   1.000  C
  C130     1.0000 0.84237  0.15773  0.19216  Biso   1.000  C
  C131     1.0000 0.84227  0.68463  0.19216  Biso   1.000  C
  C132     1.0000 0.31537  0.15763  0.19216  Biso   1.000  C
  C133     1.0000 0.50903  0.49107  0.52550  Biso   1.000  C
  C134     1.0000 0.50893  0.01797  0.52550  Biso   1.000  C
  C135     1.0000 0.98203  0.49097  0.52550  Biso   1.000  C
  C136     1.0000 0.82430  0.17560  0.14117  Biso   1.000  C
  C137     1.0000 0.82440  0.64870  0.14117  Biso   1.000  C
  C138     1.0000 0.35130  0.17570  0.14117  Biso   1.000  C
  C139     1.0000 0.49097  0.50893  0.47450  Biso   1.000  C
  C140     1.0000 0.49107  0.98203  0.47450  Biso   1.000  C
  C141     1.0000 0.01797  0.50903  0.47450  Biso   1.000  C
  C142     1.0000 0.15763  0.84227  0.80784  Biso   1.000  C
  C143     1.0000 0.15773  0.31537  0.80784  Biso   1.000  C
  C144     1.0000 0.68463  0.84237  0.80784  Biso   1.000  C
  C145     1.0000 0.22530  0.90160  0.82103  Biso   1.000  C
  C146     1.0000 0.09840  0.32370  0.82103  Biso   1.000  C
  C147     1.0000 0.67630  0.77470  0.82103  Biso   1.000  C
  C148     1.0000 0.89197  0.23493  0.15436  Biso   1.000  C
  C149     1.0000 0.76507  0.65703  0.15436  Biso   1.000  C
  C150     1.0000 0.34297  0.10803  0.15436  Biso   1.000  C
  C151     1.0000 0.55863  0.56827  0.48770  Biso   1.000  C
  C152     1.0000 0.43173  0.99037  0.48770  Biso   1.000  C
  C153     1.0000 0.00963  0.44137  0.48770  Biso   1.000  C
  C154     1.0000 0.77470  0.09840  0.17897  Biso   1.000  C
  C155     1.0000 0.90160  0.67630  0.17897  Biso   1.000  C
  C156     1.0000 0.32370  0.22530  0.17897  Biso   1.000  C
  C157     1.0000 0.44137  0.43173  0.51230  Biso   1.000  C
  C158     1.0000 0.56827  0.00963  0.51230  Biso   1.000  C
  C159     1.0000 0.99037  0.55863  0.51230  Biso   1.000  C
  C160     1.0000 0.10803  0.76507  0.84564  Biso   1.000  C
  C161     1.0000 0.23493  0.34297  0.84564  Biso   1.000  C
  C162     1.0000 0.65703  0.89197  0.84564  Biso   1.000  C
  C163     1.0000 0.22490  0.77570  0.98056  Biso   1.000  C
  C164     1.0000 0.22430  0.44920  0.98056  Biso   1.000  C
  C165     1.0000 0.55080  0.77510  0.98056  Biso   1.000  C
  C166     1.0000 0.89157  0.10903  0.31389  Biso   1.000  C
  C167     1.0000 0.89097  0.78253  0.31389  Biso   1.000  C
  C168     1.0000 0.21747  0.10843  0.31389  Biso   1.000  C
  C169     1.0000 0.55823  0.44237  0.64723  Biso   1.000  C
  C170     1.0000 0.55763  0.11587  0.64723  Biso   1.000  C
  C171     1.0000 0.88413  0.44177  0.64723  Biso   1.000  C
  C172     1.0000 0.77510  0.22430  0.01944  Biso   1.000  C
  C173     1.0000 0.77570  0.55080  0.01944  Biso   1.000  C
  C174     1.0000 0.44920  0.22490  0.01944  Biso   1.000  C
  C175     1.0000 0.44177  0.55763  0.35277  Biso   1.000  C
  C176     1.0000 0.44237  0.88413  0.35277  Biso   1.000  C
  C177     1.0000 0.11587  0.55823  0.35277  Biso   1.000  C
  C178     1.0000 0.10843  0.89097  0.68611  Biso   1.000  C
  C179     1.0000 0.10903  0.21747  0.68611  Biso   1.000  C
  C180     1.0000 0.78253  0.89157  0.68611  Biso   1.000  C
  H19      1.0000 0.23420  0.76660  0.99670  Biso   1.000  H
  H20      1.0000 0.23340  0.46760  0.99670  Biso   1.000  H
  H21      1.0000 0.53240  0.76580  0.99670  Biso   1.000  H
  H22      1.0000 0.90087  0.09993  0.33003  Biso   1.000  H
  H23      1.0000 0.90007  0.80093  0.33003  Biso   1.000  H
  H24      1.0000 0.19907  0.09913  0.33003  Biso   1.000  H
  H25      1.0000 0.56753  0.43327  0.66337  Biso   1.000  H
  H26      1.0000 0.56673  0.13427  0.66337  Biso   1.000  H
  H27      1.0000 0.86573  0.43247  0.66337  Biso   1.000  H
  H28      1.0000 0.76580  0.23340  0.00330  Biso   1.000  H
  H29      1.0000 0.76660  0.53240  0.00330  Biso   1.000  H
  H30      1.0000 0.46760  0.23420  0.00330  Biso   1.000  H
  H31      1.0000 0.43247  0.56673  0.33663  Biso   1.000  H
  H32      1.0000 0.43327  0.86573  0.33663  Biso   1.000  H
  H33      1.0000 0.13427  0.56753  0.33663  Biso   1.000  H
  H34      1.0000 0.09913  0.90007  0.66997  Biso   1.000  H
  H35      1.0000 0.09993  0.19907  0.66997  Biso   1.000  H
  H36      1.0000 0.80093  0.90087  0.66997  Biso   1.000  H
  C181     1.0000 0.15250  0.71730  0.96835  Biso   1.000  C
  C182     1.0000 0.28270  0.43520  0.96835  Biso   1.000  C
  C183     1.0000 0.56480  0.84750  0.96835  Biso   1.000  C
  C184     1.0000 0.81917  0.05063  0.30168  Biso   1.000  C
  C185     1.0000 0.94937  0.76853  0.30168  Biso   1.000  C
  C186     1.0000 0.23147  0.18083  0.30168  Biso   1.000  C
  C187     1.0000 0.48583  0.38397  0.63502  Biso   1.000  C
  C188     1.0000 0.61603  0.10187  0.63502  Biso   1.000  C
  C189     1.0000 0.89813  0.51417  0.63502  Biso   1.000  C
  C190     1.0000 0.84750  0.28270  0.03165  Biso   1.000  C
  C191     1.0000 0.71730  0.56480  0.03165  Biso   1.000  C
  C192     1.0000 0.43520  0.15250  0.03165  Biso   1.000  C
  C193     1.0000 0.51417  0.61603  0.36498  Biso   1.000  C
  C194     1.0000 0.38397  0.89813  0.36498  Biso   1.000  C
  C195     1.0000 0.10187  0.48583  0.36498  Biso   1.000  C
  C196     1.0000 0.18083  0.94937  0.69832  Biso   1.000  C
  C197     1.0000 0.05063  0.23147  0.69832  Biso   1.000  C
  C198     1.0000 0.76853  0.81917  0.69832  Biso   1.000  C
  C199     1.0000 0.13920  0.73180  0.94419  Biso   1.000  C
  C200     1.0000 0.26820  0.40740  0.94419  Biso   1.000  C
  C201     1.0000 0.59260  0.86080  0.94419  Biso   1.000  C
  C202     1.0000 0.80587  0.06513  0.27752  Biso   1.000  C
  C203     1.0000 0.93487  0.74073  0.27752  Biso   1.000  C
  C204     1.0000 0.25927  0.19413  0.27752  Biso   1.000  C
  C205     1.0000 0.47253  0.39847  0.61086  Biso   1.000  C
  C206     1.0000 0.60153  0.07407  0.61086  Biso   1.000  C
  C207     1.0000 0.92593  0.52747  0.61086  Biso   1.000  C
  C208     1.0000 0.86080  0.26820  0.05581  Biso   1.000  C
  C209     1.0000 0.73180  0.59260  0.05581  Biso   1.000  C
  C210     1.0000 0.40740  0.13920  0.05581  Biso   1.000  C
  C211     1.0000 0.52747  0.60153  0.38914  Biso   1.000  C
  C212     1.0000 0.39847  0.92593  0.38914  Biso   1.000  C
  C213     1.0000 0.07407  0.47253  0.38914  Biso   1.000  C
  C214     1.0000 0.19413  0.93487  0.72248  Biso   1.000  C
  C215     1.0000 0.06513  0.25927  0.72248  Biso   1.000  C
  C216     1.0000 0.74073  0.80587  0.72248  Biso   1.000  C
  H37      1.0000 0.09090  0.69410  0.93620  Biso   1.000  H
  H38      1.0000 0.30590  0.39680  0.93620  Biso   1.000  H
  H39      1.0000 0.60320  0.90910  0.93620  Biso   1.000  H
  H40      1.0000 0.75757  0.02743  0.26953  Biso   1.000  H
  H41      1.0000 0.97257  0.73013  0.26953  Biso   1.000  H
  H42      1.0000 0.26987  0.24243  0.26953  Biso   1.000  H
  H43      1.0000 0.42423  0.36077  0.60287  Biso   1.000  H
  H44      1.0000 0.63923  0.06347  0.60287  Biso   1.000  H
  H45      1.0000 0.93653  0.57577  0.60287  Biso   1.000  H
  H46      1.0000 0.90910  0.30590  0.06380  Biso   1.000  H
  H47      1.0000 0.69410  0.60320  0.06380  Biso   1.000  H
  H48      1.0000 0.39680  0.09090  0.06380  Biso   1.000  H
  H49      1.0000 0.57577  0.63923  0.39713  Biso   1.000  H
  H50      1.0000 0.36077  0.93653  0.39713  Biso   1.000  H
  H51      1.0000 0.06347  0.42423  0.39713  Biso   1.000  H
  H52      1.0000 0.24243  0.97257  0.73047  Biso   1.000  H
  H53      1.0000 0.02743  0.26987  0.73047  Biso   1.000  H
  H54      1.0000 0.73013  0.75757  0.73047  Biso   1.000  H
  C217     1.0000 0.09300  0.63860  0.98071  Biso   1.000  C
  C218     1.0000 0.36140  0.45440  0.98071  Biso   1.000  C
  C219     1.0000 0.54560  0.90700  0.98071  Biso   1.000  C
  C220     1.0000 0.75967  0.97193  0.31404  Biso   1.000  C
  C221     1.0000 0.02807  0.78773  0.31404  Biso   1.000  C
  C222     1.0000 0.21227  0.24033  0.31404  Biso   1.000  C
  C223     1.0000 0.42633  0.30527  0.64738  Biso   1.000  C
  C224     1.0000 0.69473  0.12107  0.64738  Biso   1.000  C
  C225     1.0000 0.87893  0.57367  0.64738  Biso   1.000  C
  C226     1.0000 0.90700  0.36140  0.01929  Biso   1.000  C
  C227     1.0000 0.63860  0.54560  0.01929  Biso   1.000  C
  C228     1.0000 0.45440  0.09300  0.01929  Biso   1.000  C
  C229     1.0000 0.57367  0.69473  0.35262  Biso   1.000  C
  C230     1.0000 0.30527  0.87893  0.35262  Biso   1.000  C
  C231     1.0000 0.12107  0.42633  0.35262  Biso   1.000  C
  C232     1.0000 0.24033  0.02807  0.68596  Biso   1.000  C
  C233     1.0000 0.97193  0.21227  0.68596  Biso   1.000  C
  C234     1.0000 0.78773  0.75967  0.68596  Biso   1.000  C
  O19      1.0000 0.11037  0.62849  0.00213  Biso   1.000  O
  O20      1.0000 0.37151  0.48188  0.00213  Biso   1.000  O
  O21      1.0000 0.51812  0.88963  0.00213  Biso   1.000  O
  O22      1.0000 0.77704  0.96182  0.33546  Biso   1.000  O
  O23      1.0000 0.03818  0.81521  0.33546  Biso   1.000  O
  O24      1.0000 0.18479  0.22296  0.33546  Biso   1.000  O
  O25      1.0000 0.44370  0.29516  0.66880  Biso   1.000  O
  O26      1.0000 0.70484  0.14855  0.66880  Biso   1.000  O
  O27      1.0000 0.85145  0.55630  0.66880  Biso   1.000  O
  O28      1.0000 0.88963  0.37151  0.99787  Biso   1.000  O
  O29      1.0000 0.62849  0.51812  0.99787  Biso   1.000  O
  O30      1.0000 0.48188  0.11037  0.99787  Biso   1.000  O
  O31      1.0000 0.55630  0.70484  0.33120  Biso   1.000  O
  O32      1.0000 0.29516  0.85145  0.33120  Biso   1.000  O
  O33      1.0000 0.14855  0.44370  0.33120  Biso   1.000  O
  O34      1.0000 0.22296  0.03818  0.66454  Biso   1.000  O
  O35      1.0000 0.96182  0.18479  0.66454  Biso   1.000  O
  O36      1.0000 0.81521  0.77704  0.66454  Biso   1.000  O
  O37      1.0000 0.03172  0.58846  0.96861  Biso   1.000  O
  O38      1.0000 0.41154  0.44326  0.96861  Biso   1.000  O
  O39      1.0000 0.55674  0.96828  0.96861  Biso   1.000  O
  O40      1.0000 0.69839  0.92179  0.30194  Biso   1.000  O
  O41      1.0000 0.07821  0.77659  0.30194  Biso   1.000  O
  O42      1.0000 0.22341  0.30161  0.30194  Biso   1.000  O
  O43      1.0000 0.36505  0.25513  0.63528  Biso   1.000  O
  O44      1.0000 0.74487  0.10993  0.63528  Biso   1.000  O
  O45      1.0000 0.89007  0.63495  0.63528  Biso   1.000  O
  O46      1.0000 0.96828  0.41154  0.03139  Biso   1.000  O
  O47      1.0000 0.58846  0.55674  0.03139  Biso   1.000  O
  O48      1.0000 0.44326  0.03172  0.03139  Biso   1.000  O
  O49      1.0000 0.63495  0.74487  0.36472  Biso   1.000  O
  O50      1.0000 0.25513  0.89007  0.36472  Biso   1.000  O
  O51      1.0000 0.10993  0.36505  0.36472  Biso   1.000  O
  O52      1.0000 0.30161  0.07821  0.69806  Biso   1.000  O
  O53      1.0000 0.92179  0.22341  0.69806  Biso   1.000  O
  O54      1.0000 0.77659  0.69839  0.69806  Biso   1.000  O
  O55      1.0000 0.41164  0.96833  0.96861  Biso   1.000  O
  O56      1.0000 0.03167  0.44331  0.96861  Biso   1.000  O
  O57      1.0000 0.55669  0.58836  0.96861  Biso   1.000  O
  O58      1.0000 0.07831  0.30166  0.30194  Biso   1.000  O
  O59      1.0000 0.69834  0.77664  0.30194  Biso   1.000  O
  O60      1.0000 0.22336  0.92169  0.30194  Biso   1.000  O
  O61      1.0000 0.74497  0.63500  0.63528  Biso   1.000  O
  O62      1.0000 0.36500  0.10998  0.63528  Biso   1.000  O
  O63      1.0000 0.89002  0.25503  0.63528  Biso   1.000  O
  O64      1.0000 0.58836  0.03167  0.03139  Biso   1.000  O
  O65      1.0000 0.96833  0.55669  0.03139  Biso   1.000  O
  O66      1.0000 0.44331  0.41164  0.03139  Biso   1.000  O
  O67      1.0000 0.25503  0.36500  0.36472  Biso   1.000  O
  O68      1.0000 0.63500  0.89002  0.36472  Biso   1.000  O
  O69      1.0000 0.10998  0.74497  0.36472  Biso   1.000  O
  O70      1.0000 0.92169  0.69834  0.69806  Biso   1.000  O
  O71      1.0000 0.30166  0.22336  0.69806  Biso   1.000  O
  O72      1.0000 0.77664  0.07831  0.69806  Biso   1.000  O
  O73      1.0000 0.44200  0.88370  0.05349  Biso   1.000  O
  O74      1.0000 0.11630  0.55830  0.05349  Biso   1.000  O
  O75      1.0000 0.44170  0.55800  0.05349  Biso   1.000  O
  O76      1.0000 0.10867  0.21703  0.38682  Biso   1.000  O
  O77      1.0000 0.78297  0.89163  0.38682  Biso   1.000  O
  O78      1.0000 0.10837  0.89133  0.38682  Biso   1.000  O
  O79      1.0000 0.77533  0.55037  0.72016  Biso   1.000  O
  O80      1.0000 0.44963  0.22497  0.72016  Biso   1.000  O
  O81      1.0000 0.77503  0.22467  0.72016  Biso   1.000  O
  O82      1.0000 0.55800  0.11630  0.94651  Biso   1.000  O
  O83      1.0000 0.88370  0.44170  0.94651  Biso   1.000  O
  O84      1.0000 0.55830  0.44200  0.94651  Biso   1.000  O
  O85      1.0000 0.22467  0.44963  0.27984  Biso   1.000  O
  O86      1.0000 0.55037  0.77503  0.27984  Biso   1.000  O
  O87      1.0000 0.22497  0.77533  0.27984  Biso   1.000  O
  O88      1.0000 0.89133  0.78297  0.61318  Biso   1.000  O
  O89      1.0000 0.21703  0.10837  0.61318  Biso   1.000  O
  O90      1.0000 0.89163  0.10867  0.61318  Biso   1.000  O
  C235     1.0000 0.28550  0.97200  0.80884  Biso   1.000  C
  C236     1.0000 0.02800  0.31350  0.80884  Biso   1.000  C
  C237     1.0000 0.68650  0.71450  0.80884  Biso   1.000  C
  C238     1.0000 0.95217  0.30533  0.14217  Biso   1.000  C
  C239     1.0000 0.69467  0.64683  0.14217  Biso   1.000  C
  C240     1.0000 0.35317  0.04783  0.14217  Biso   1.000  C
  C241     1.0000 0.61883  0.63867  0.47551  Biso   1.000  C
  C242     1.0000 0.36133  0.98017  0.47551  Biso   1.000  C
  C243     1.0000 0.01983  0.38117  0.47551  Biso   1.000  C
  C244     1.0000 0.71450  0.02800  0.19116  Biso   1.000  C
  C245     1.0000 0.97200  0.68650  0.19116  Biso   1.000  C
  C246     1.0000 0.31350  0.28550  0.19116  Biso   1.000  C
  C247     1.0000 0.38117  0.36133  0.52449  Biso   1.000  C
  C248     1.0000 0.63867  0.01983  0.52449  Biso   1.000  C
  C249     1.0000 0.98017  0.61883  0.52449  Biso   1.000  C
  C250     1.0000 0.04783  0.69467  0.85783  Biso   1.000  C
  C251     1.0000 0.30533  0.35317  0.85783  Biso   1.000  C
  C252     1.0000 0.64683  0.95217  0.85783  Biso   1.000  C
  H55      1.0000 0.27720  0.97870  0.79240  Biso   1.000  H
  H56      1.0000 0.02130  0.29850  0.79240  Biso   1.000  H
  H57      1.0000 0.70150  0.72280  0.79240  Biso   1.000  H
  H58      1.0000 0.94387  0.31203  0.12573  Biso   1.000  H
  H59      1.0000 0.68797  0.63183  0.12573  Biso   1.000  H
  H60      1.0000 0.36817  0.05613  0.12573  Biso   1.000  H
  H61      1.0000 0.61053  0.64537  0.45907  Biso   1.000  H
  H62      1.0000 0.35463  0.96517  0.45907  Biso   1.000  H
  H63      1.0000 0.03483  0.38947  0.45907  Biso   1.000  H
  H64      1.0000 0.72280  0.02130  0.20760  Biso   1.000  H
  H65      1.0000 0.97870  0.70150  0.20760  Biso   1.000  H
  H66      1.0000 0.29850  0.27720  0.20760  Biso   1.000  H
  H67      1.0000 0.38947  0.35463  0.54093  Biso   1.000  H
  H68      1.0000 0.64537  0.03483  0.54093  Biso   1.000  H
  H69      1.0000 0.96517  0.61053  0.54093  Biso   1.000  H
  H70      1.0000 0.05613  0.68797  0.87427  Biso   1.000  H
  H71      1.0000 0.31203  0.36817  0.87427  Biso   1.000  H
  H72      1.0000 0.63183  0.94387  0.87427  Biso   1.000  H
  C253     1.0000 0.36020  0.03510  0.82067  Biso   1.000  C
  C254     1.0000 0.96490  0.32510  0.82067  Biso   1.000  C
  C255     1.0000 0.67490  0.63980  0.82067  Biso   1.000  C
  C256     1.0000 0.02687  0.36843  0.15400  Biso   1.000  C
  C257     1.0000 0.63157  0.65843  0.15400  Biso   1.000  C
  C258     1.0000 0.34157  0.97313  0.15400  Biso   1.000  C
  C259     1.0000 0.69353  0.70177  0.48734  Biso   1.000  C
  C260     1.0000 0.29823  0.99177  0.48734  Biso   1.000  C
  C261     1.0000 0.00823  0.30647  0.48734  Biso   1.000  C
  C262     1.0000 0.63980  0.96490  0.17933  Biso   1.000  C
  C263     1.0000 0.03510  0.67490  0.17933  Biso   1.000  C
  C264     1.0000 0.32510  0.36020  0.17933  Biso   1.000  C
  C265     1.0000 0.30647  0.29823  0.51266  Biso   1.000  C
  C266     1.0000 0.70177  0.00823  0.51266  Biso   1.000  C
  C267     1.0000 0.99177  0.69353  0.51266  Biso   1.000  C
  C268     1.0000 0.97313  0.63157  0.84600  Biso   1.000  C
  C269     1.0000 0.36843  0.34157  0.84600  Biso   1.000  C
  C270     1.0000 0.65843  0.02687  0.84600  Biso   1.000  C
  H73      1.0000 0.39970  0.08100  0.81210  Biso   1.000  H
  H74      1.0000 0.91900  0.31870  0.81210  Biso   1.000  H
  H75      1.0000 0.68130  0.60030  0.81210  Biso   1.000  H
  H76      1.0000 0.06637  0.41433  0.14543  Biso   1.000  H
  H77      1.0000 0.58567  0.65203  0.14543  Biso   1.000  H
  H78      1.0000 0.34797  0.93363  0.14543  Biso   1.000  H
  H79      1.0000 0.73303  0.74767  0.47877  Biso   1.000  H
  H80      1.0000 0.25233  0.98537  0.47877  Biso   1.000  H
  H81      1.0000 0.01463  0.26697  0.47877  Biso   1.000  H
  H82      1.0000 0.60030  0.91900  0.18790  Biso   1.000  H
  H83      1.0000 0.08100  0.68130  0.18790  Biso   1.000  H
  H84      1.0000 0.31870  0.39970  0.18790  Biso   1.000  H
  H85      1.0000 0.26697  0.25233  0.52123  Biso   1.000  H
  H86      1.0000 0.74767  0.01463  0.52123  Biso   1.000  H
  H87      1.0000 0.98537  0.73303  0.52123  Biso   1.000  H
  H88      1.0000 0.93363  0.58567  0.85457  Biso   1.000  H
  H89      1.0000 0.41433  0.34797  0.85457  Biso   1.000  H
  H90      1.0000 0.65203  0.06637  0.85457  Biso   1.000  H
  C271     1.0000 0.37020  0.02370  0.84524  Biso   1.000  C
  C272     1.0000 0.97630  0.34650  0.84524  Biso   1.000  C
  C273     1.0000 0.65350  0.62980  0.84524  Biso   1.000  C
  C274     1.0000 0.03687  0.35703  0.17857  Biso   1.000  C
  C275     1.0000 0.64297  0.67983  0.17857  Biso   1.000  C
  C276     1.0000 0.32017  0.96313  0.17857  Biso   1.000  C
  C277     1.0000 0.70353  0.69037  0.51191  Biso   1.000  C
  C278     1.0000 0.30963  0.01317  0.51191  Biso   1.000  C
  C279     1.0000 0.98683  0.29647  0.51191  Biso   1.000  C
  C280     1.0000 0.62980  0.97630  0.15476  Biso   1.000  C
  C281     1.0000 0.02370  0.65350  0.15476  Biso   1.000  C
  C282     1.0000 0.34650  0.37020  0.15476  Biso   1.000  C
  C283     1.0000 0.29647  0.30963  0.48809  Biso   1.000  C
  C284     1.0000 0.69037  0.98683  0.48809  Biso   1.000  C
  C285     1.0000 0.01317  0.70353  0.48809  Biso   1.000  C
  C286     1.0000 0.96313  0.64297  0.82143  Biso   1.000  C
  C287     1.0000 0.35703  0.32017  0.82143  Biso   1.000  C
  C288     1.0000 0.67983  0.03687  0.82143  Biso   1.000  C
  H91      1.0000 0.41630  0.06270  0.85380  Biso   1.000  H
  H92      1.0000 0.93730  0.35360  0.85380  Biso   1.000  H
  H93      1.0000 0.64640  0.58370  0.85380  Biso   1.000  H
  H94      1.0000 0.08297  0.39603  0.18713  Biso   1.000  H
  H95      1.0000 0.60397  0.68693  0.18713  Biso   1.000  H
  H96      1.0000 0.31307  0.91703  0.18713  Biso   1.000  H
  H97      1.0000 0.74963  0.72937  0.52047  Biso   1.000  H
  H98      1.0000 0.27063  0.02027  0.52047  Biso   1.000  H
  H99      1.0000 0.97973  0.25037  0.52047  Biso   1.000  H
  H100     1.0000 0.58370  0.93730  0.14620  Biso   1.000  H
  H101     1.0000 0.06270  0.64640  0.14620  Biso   1.000  H
  H102     1.0000 0.35360  0.41630  0.14620  Biso   1.000  H
  H103     1.0000 0.25037  0.27063  0.47953  Biso   1.000  H
  H104     1.0000 0.72937  0.97973  0.47953  Biso   1.000  H
  H105     1.0000 0.02027  0.74963  0.47953  Biso   1.000  H
  H106     1.0000 0.91703  0.60397  0.81287  Biso   1.000  H
  H107     1.0000 0.39603  0.31307  0.81287  Biso   1.000  H
  H108     1.0000 0.68693  0.08297  0.81287  Biso   1.000  H
  C289     1.0000 0.30790  0.95050  0.85718  Biso   1.000  C
  C290     1.0000 0.04950  0.35740  0.85718  Biso   1.000  C
  C291     1.0000 0.64260  0.69210  0.85718  Biso   1.000  C
  C292     1.0000 0.97457  0.28383  0.19051  Biso   1.000  C
  C293     1.0000 0.71617  0.69073  0.19051  Biso   1.000  C
  C294     1.0000 0.30927  0.02543  0.19051  Biso   1.000  C
  C295     1.0000 0.64123  0.61717  0.52385  Biso   1.000  C
  C296     1.0000 0.38283  0.02407  0.52385  Biso   1.000  C
  C297     1.0000 0.97593  0.35877  0.52385  Biso   1.000  C
  C298     1.0000 0.69210  0.04950  0.14282  Biso   1.000  C
  C299     1.0000 0.95050  0.64260  0.14282  Biso   1.000  C
  C300     1.0000 0.35740  0.30790  0.14282  Biso   1.000  C
  C301     1.0000 0.35877  0.38283  0.47615  Biso   1.000  C
  C302     1.0000 0.61717  0.97593  0.47615  Biso   1.000  C
  C303     1.0000 0.02407  0.64123  0.47615  Biso   1.000  C
  C304     1.0000 0.02543  0.71617  0.80949  Biso   1.000  C
  C305     1.0000 0.28383  0.30927  0.80949  Biso   1.000  C
  C306     1.0000 0.69073  0.97457  0.80949  Biso   1.000  C
  H109     1.0000 0.31530  0.94230  0.87360  Biso   1.000  H
  H110     1.0000 0.05770  0.37300  0.87360  Biso   1.000  H
  H111     1.0000 0.62700  0.68470  0.87360  Biso   1.000  H
  H112     1.0000 0.98197  0.27563  0.20693  Biso   1.000  H
  H113     1.0000 0.72437  0.70633  0.20693  Biso   1.000  H
  H114     1.0000 0.29367  0.01803  0.20693  Biso   1.000  H
  H115     1.0000 0.64863  0.60897  0.54027  Biso   1.000  H
  H116     1.0000 0.39103  0.03967  0.54027  Biso   1.000  H
  H117     1.0000 0.96033  0.35137  0.54027  Biso   1.000  H
  H118     1.0000 0.68470  0.05770  0.12640  Biso   1.000  H
  H119     1.0000 0.94230  0.62700  0.12640  Biso   1.000  H
  H120     1.0000 0.37300  0.31530  0.12640  Biso   1.000  H
  H121     1.0000 0.35137  0.39103  0.45973  Biso   1.000  H
  H122     1.0000 0.60897  0.96033  0.45973  Biso   1.000  H
  H123     1.0000 0.03967  0.64863  0.45973  Biso   1.000  H
  H124     1.0000 0.01803  0.72437  0.79307  Biso   1.000  H
  H125     1.0000 0.27563  0.29367  0.79307  Biso   1.000  H
  H126     1.0000 0.70633  0.98197  0.79307  Biso   1.000  H
  H127     1.0000 0.27930  0.93380  0.85410  Biso   1.000  H
  H128     1.0000 0.06620  0.34550  0.85410  Biso   1.000  H
  H129     1.0000 0.65450  0.72070  0.85410  Biso   1.000  H
  H130     1.0000 0.94597  0.26713  0.18743  Biso   1.000  H
  H131     1.0000 0.73287  0.67883  0.18743  Biso   1.000  H
  H132     1.0000 0.32117  0.05403  0.18743  Biso   1.000  H
  H133     1.0000 0.61263  0.60047  0.52077  Biso   1.000  H
  H134     1.0000 0.39953  0.01217  0.52077  Biso   1.000  H
  H135     1.0000 0.98783  0.38737  0.52077  Biso   1.000  H
  H136     1.0000 0.72070  0.06620  0.14590  Biso   1.000  H
  H137     1.0000 0.93380  0.65450  0.14590  Biso   1.000  H
  H138     1.0000 0.34550  0.27930  0.14590  Biso   1.000  H
  H139     1.0000 0.38737  0.39953  0.47923  Biso   1.000  H
  H140     1.0000 0.60047  0.98783  0.47923  Biso   1.000  H
  H141     1.0000 0.01217  0.61263  0.47923  Biso   1.000  H
  H142     1.0000 0.05403  0.73287  0.81257  Biso   1.000  H
  H143     1.0000 0.26713  0.32117  0.81257  Biso   1.000  H
  H144     1.0000 0.67883  0.94597  0.81257  Biso   1.000  H
  H145     1.0000 0.26460  0.94970  0.81330  Biso   1.000  H
  H146     1.0000 0.05030  0.31490  0.81330  Biso   1.000  H
  H147     1.0000 0.68510  0.73540  0.81330  Biso   1.000  H
  H148     1.0000 0.93127  0.28303  0.14663  Biso   1.000  H
  H149     1.0000 0.71697  0.64823  0.14663  Biso   1.000  H
  H150     1.0000 0.35177  0.06873  0.14663  Biso   1.000  H
  H151     1.0000 0.59793  0.61637  0.47997  Biso   1.000  H
  H152     1.0000 0.38363  0.98157  0.47997  Biso   1.000  H
  H153     1.0000 0.01843  0.40207  0.47997  Biso   1.000  H
  H154     1.0000 0.73540  0.05030  0.18670  Biso   1.000  H
  H155     1.0000 0.94970  0.68510  0.18670  Biso   1.000  H
  H156     1.0000 0.31490  0.26460  0.18670  Biso   1.000  H
  H157     1.0000 0.40207  0.38363  0.52003  Biso   1.000  H
  H158     1.0000 0.61637  0.01843  0.52003  Biso   1.000  H
  H159     1.0000 0.98157  0.59793  0.52003  Biso   1.000  H
  H160     1.0000 0.06873  0.71697  0.85337  Biso   1.000  H
  H161     1.0000 0.28303  0.35177  0.85337  Biso   1.000  H
  H162     1.0000 0.64823  0.93127  0.85337  Biso   1.000  H
