data_image0
_cell_length_a       12.3299
_cell_length_b       22.7467
_cell_length_c       26.7771
_cell_angle_alpha    90
_cell_angle_beta     101.159
_cell_angle_gamma    90

_symmetry_space_group_name_H-M    "P 1"
_symmetry_int_tables_number       1

loop_
  _symmetry_equiv_pos_as_xyz
  'x, y, z'

loop_
  _atom_site_label
  _atom_site_occupancy
  _atom_site_fract_x
  _atom_site_fract_y
  _atom_site_fract_z
  _atom_site_thermal_displace_type
  _atom_site_B_iso_or_equiv
  _atom_site_type_symbol
  Cu1      1.0000 0.96829  0.85464  0.29368  Biso   1.000  Cu
  Cu2      1.0000 0.53171  0.35464  0.20632  Biso   1.000  Cu
  Cu3      1.0000 0.03171  0.14536  0.70632  Biso   1.000  Cu
  Cu4      1.0000 0.46829  0.64536  0.79368  Biso   1.000  Cu
  O1       1.0000 0.80000  0.80470  0.26372  Biso   1.000  O
  O2       1.0000 0.70000  0.30470  0.23628  Biso   1.000  O
  O3       1.0000 0.20000  0.19530  0.73628  Biso   1.000  O
  O4       1.0000 0.30000  0.69530  0.76372  Biso   1.000  O
  O5       1.0000 0.15070  0.90594  0.31833  Biso   1.000  O
  O6       1.0000 0.34930  0.40594  0.18167  Biso   1.000  O
  O7       1.0000 0.84930  0.09406  0.68167  Biso   1.000  O
  O8       1.0000 0.65070  0.59406  0.81833  Biso   1.000  O
  N1       1.0000 0.90820  0.93270  0.26427  Biso   1.000  N
  N2       1.0000 0.59180  0.43270  0.23573  Biso   1.000  N
  N3       1.0000 0.09180  0.06730  0.73573  Biso   1.000  N
  N4       1.0000 0.40820  0.56730  0.76427  Biso   1.000  N
  N5       1.0000 0.92270  0.87570  0.36023  Biso   1.000  N
  N6       1.0000 0.57730  0.37570  0.13977  Biso   1.000  N
  N7       1.0000 0.07730  0.12430  0.63977  Biso   1.000  N
  N8       1.0000 0.42270  0.62430  0.86023  Biso   1.000  N
  N9       1.0000 0.46270  0.28040  0.17183  Biso   1.000  N
  N10      1.0000 0.03730  0.78040  0.32817  Biso   1.000  N
  N11      1.0000 0.53730  0.71960  0.82817  Biso   1.000  N
  N12      1.0000 0.96270  0.21960  0.67183  Biso   1.000  N
  N13      1.0000 0.98140  0.16620  0.77162  Biso   1.000  N
  N14      1.0000 0.51860  0.66620  0.72838  Biso   1.000  N
  N15      1.0000 0.01860  0.83380  0.22838  Biso   1.000  N
  N16      1.0000 0.48140  0.33380  0.27162  Biso   1.000  N
  N17      1.0000 0.70540  0.82060  0.24180  Biso   1.000  N
  N18      1.0000 0.79460  0.32060  0.25820  Biso   1.000  N
  N19      1.0000 0.29460  0.17940  0.75820  Biso   1.000  N
  N20      1.0000 0.20540  0.67940  0.74180  Biso   1.000  N
  N21      1.0000 0.20340  0.95350  0.31720  Biso   1.000  N
  N22      1.0000 0.29660  0.45350  0.18280  Biso   1.000  N
  N23      1.0000 0.79660  0.04650  0.68280  Biso   1.000  N
  N24      1.0000 0.70340  0.54650  0.81720  Biso   1.000  N
  C1       1.0000 0.80800  0.95310  0.27040  Biso   1.000  C
  C2       1.0000 0.69200  0.45310  0.22960  Biso   1.000  C
  C3       1.0000 0.19200  0.04690  0.72960  Biso   1.000  C
  C4       1.0000 0.30800  0.54690  0.77040  Biso   1.000  C
  C5       1.0000 0.97030  0.96850  0.24160  Biso   1.000  C
  C6       1.0000 0.52970  0.46850  0.25840  Biso   1.000  C
  C7       1.0000 0.02970  0.03150  0.75840  Biso   1.000  C
  C8       1.0000 0.47030  0.53150  0.74160  Biso   1.000  C
  C9       1.0000 0.97310  0.92030  0.38800  Biso   1.000  C
  C10      1.0000 0.52690  0.42030  0.11200  Biso   1.000  C
  C11      1.0000 0.02690  0.07970  0.61200  Biso   1.000  C
  C12      1.0000 0.47310  0.57970  0.88800  Biso   1.000  C
  C13      1.0000 0.84090  0.84750  0.37650  Biso   1.000  C
  C14      1.0000 0.65910  0.34750  0.12350  Biso   1.000  C
  C15      1.0000 0.15910  0.15250  0.62350  Biso   1.000  C
  C16      1.0000 0.34090  0.65250  0.87650  Biso   1.000  C
  O9       1.0000 0.68590  0.82520  0.19470  Biso   1.000  O
  O10      1.0000 0.81410  0.32520  0.30530  Biso   1.000  O
  O11      1.0000 0.31410  0.17480  0.80530  Biso   1.000  O
  O12      1.0000 0.18590  0.67480  0.69470  Biso   1.000  O
  O13      1.0000 0.63360  0.82990  0.26610  Biso   1.000  O
  O14      1.0000 0.86640  0.32990  0.23390  Biso   1.000  O
  O15      1.0000 0.36640  0.17010  0.73390  Biso   1.000  O
  O16      1.0000 0.13360  0.67010  0.76610  Biso   1.000  O
  O17      1.0000 0.21290  0.98660  0.35430  Biso   1.000  O
  O18      1.0000 0.28710  0.48660  0.14570  Biso   1.000  O
  O19      1.0000 0.78710  0.01340  0.64570  Biso   1.000  O
  O20      1.0000 0.71290  0.51340  0.85430  Biso   1.000  O
  O21      1.0000 0.24390  0.96560  0.27990  Biso   1.000  O
  O22      1.0000 0.25610  0.46560  0.22010  Biso   1.000  O
  O23      1.0000 0.75610  0.03440  0.72010  Biso   1.000  O
  O24      1.0000 0.74390  0.53440  0.77990  Biso   1.000  O
  H1       1.0000 0.76300  0.92820  0.28640  Biso   1.000  H
  H2       1.0000 0.73700  0.42820  0.21360  Biso   1.000  H
  H3       1.0000 0.23700  0.07180  0.71360  Biso   1.000  H
  H4       1.0000 0.26300  0.57180  0.78640  Biso   1.000  H
  C17      1.0000 0.76900  0.00730  0.25490  Biso   1.000  C
  C18      1.0000 0.73100  0.50730  0.24510  Biso   1.000  C
  C19      1.0000 0.23100  0.99270  0.74510  Biso   1.000  C
  C20      1.0000 0.26900  0.49270  0.75490  Biso   1.000  C
  C21      1.0000 0.93750  0.02450  0.22600  Biso   1.000  C
  C22      1.0000 0.56250  0.52450  0.27400  Biso   1.000  C
  C23      1.0000 0.06250  0.97550  0.77400  Biso   1.000  C
  C24      1.0000 0.43750  0.47550  0.72600  Biso   1.000  C
  H5       1.0000 0.03970  0.95460  0.23600  Biso   1.000  H
  H6       1.0000 0.46030  0.45460  0.26400  Biso   1.000  H
  H7       1.0000 0.96030  0.04540  0.76400  Biso   1.000  H
  H8       1.0000 0.53970  0.54540  0.73600  Biso   1.000  H
  H9       1.0000 0.03120  0.94050  0.37660  Biso   1.000  H
  H10      1.0000 0.46880  0.44050  0.12340  Biso   1.000  H
  H11      1.0000 0.96880  0.05950  0.62340  Biso   1.000  H
  H12      1.0000 0.53120  0.55950  0.87660  Biso   1.000  H
  C25      1.0000 0.94360  0.93790  0.43240  Biso   1.000  C
  C26      1.0000 0.55640  0.43790  0.06760  Biso   1.000  C
  C27      1.0000 0.05640  0.06210  0.56760  Biso   1.000  C
  C28      1.0000 0.44360  0.56210  0.93240  Biso   1.000  C
  C29      1.0000 0.80390  0.86370  0.42060  Biso   1.000  C
  C30      1.0000 0.69610  0.36370  0.07940  Biso   1.000  C
  C31      1.0000 0.19610  0.13630  0.57940  Biso   1.000  C
  C32      1.0000 0.30390  0.63630  0.92060  Biso   1.000  C
  H13      1.0000 0.80650  0.81520  0.35730  Biso   1.000  H
  H14      1.0000 0.69350  0.31520  0.14270  Biso   1.000  H
  H15      1.0000 0.19350  0.18480  0.64270  Biso   1.000  H
  H16      1.0000 0.30650  0.68480  0.85730  Biso   1.000  H
  H17      1.0000 0.69740  0.01940  0.25880  Biso   1.000  H
  H18      1.0000 0.80260  0.51940  0.24120  Biso   1.000  H
  H19      1.0000 0.30260  0.98060  0.74120  Biso   1.000  H
  H20      1.0000 0.19740  0.48060  0.75880  Biso   1.000  H
  C33      1.0000 0.83580  0.04450  0.23320  Biso   1.000  C
  C34      1.0000 0.66420  0.54450  0.26680  Biso   1.000  C
  C35      1.0000 0.16420  0.95550  0.76680  Biso   1.000  C
  C36      1.0000 0.33580  0.45550  0.73320  Biso   1.000  C
  H21      1.0000 0.98400  0.04900  0.21050  Biso   1.000  H
  H22      1.0000 0.51600  0.54900  0.28950  Biso   1.000  H
  H23      1.0000 0.01600  0.95100  0.78950  Biso   1.000  H
  H24      1.0000 0.48400  0.45100  0.71050  Biso   1.000  H
  H25      1.0000 0.98230  0.96900  0.45180  Biso   1.000  H
  H26      1.0000 0.51770  0.46900  0.04820  Biso   1.000  H
  H27      1.0000 0.01770  0.03100  0.54820  Biso   1.000  H
  H28      1.0000 0.48230  0.53100  0.95180  Biso   1.000  H
  C37      1.0000 0.85690  0.91000  0.44900  Biso   1.000  C
  C38      1.0000 0.64310  0.41000  0.05100  Biso   1.000  C
  C39      1.0000 0.14310  0.09000  0.55100  Biso   1.000  C
  C40      1.0000 0.35690  0.59000  0.94900  Biso   1.000  C
  H29      1.0000 0.74420  0.84360  0.43080  Biso   1.000  H
  H30      1.0000 0.75580  0.34360  0.06920  Biso   1.000  H
  H31      1.0000 0.25580  0.15640  0.56920  Biso   1.000  H
  H32      1.0000 0.24420  0.65640  0.93080  Biso   1.000  H
  C41      1.0000 0.79490  0.10520  0.21750  Biso   1.000  C
  C42      1.0000 0.70510  0.60520  0.28250  Biso   1.000  C
  C43      1.0000 0.20510  0.89480  0.78250  Biso   1.000  C
  C44      1.0000 0.29490  0.39480  0.71750  Biso   1.000  C
  C45      1.0000 0.82520  0.93110  0.49650  Biso   1.000  C
  C46      1.0000 0.67480  0.43110  0.00350  Biso   1.000  C
  C47      1.0000 0.17480  0.06890  0.50350  Biso   1.000  C
  C48      1.0000 0.32520  0.56890  0.99650  Biso   1.000  C
  O25      1.0000 0.70530  0.12350  0.22150  Biso   1.000  O
  O26      1.0000 0.79470  0.62350  0.27850  Biso   1.000  O
  O27      1.0000 0.29470  0.87650  0.77850  Biso   1.000  O
  O28      1.0000 0.20530  0.37650  0.72150  Biso   1.000  O
  O29      1.0000 0.87080  0.13545  0.20011  Biso   1.000  O
  O30      1.0000 0.62920  0.63545  0.29989  Biso   1.000  O
  O31      1.0000 0.12920  0.86455  0.79989  Biso   1.000  O
  O32      1.0000 0.37080  0.36455  0.70011  Biso   1.000  O
  O33      1.0000 0.88180  0.96400  0.52510  Biso   1.000  O
  O34      1.0000 0.61820  0.46400  0.97490  Biso   1.000  O
  O35      1.0000 0.11820  0.03600  0.47490  Biso   1.000  O
  O36      1.0000 0.38180  0.53600  0.02510  Biso   1.000  O
  O37      1.0000 0.73120  0.91030  0.50478  Biso   1.000  O
  O38      1.0000 0.76880  0.41030  0.99522  Biso   1.000  O
  O39      1.0000 0.26880  0.08970  0.49522  Biso   1.000  O
  O40      1.0000 0.23120  0.58970  0.00478  Biso   1.000  O
  C49      1.0000 0.84020  0.19530  0.18360  Biso   1.000  C
  C50      1.0000 0.65980  0.69530  0.31640  Biso   1.000  C
  C51      1.0000 0.15980  0.80470  0.81640  Biso   1.000  C
  C52      1.0000 0.34020  0.30470  0.68360  Biso   1.000  C
  C53      1.0000 0.70190  0.93340  0.55110  Biso   1.000  C
  C54      1.0000 0.79810  0.43340  0.94890  Biso   1.000  C
  C55      1.0000 0.29810  0.06660  0.44890  Biso   1.000  C
  C56      1.0000 0.20190  0.56660  0.05110  Biso   1.000  C
  H33      1.0000 0.83850  0.22080  0.21340  Biso   1.000  H
  H34      1.0000 0.66150  0.72080  0.28660  Biso   1.000  H
  H35      1.0000 0.16150  0.77920  0.78660  Biso   1.000  H
  H36      1.0000 0.33850  0.27920  0.71340  Biso   1.000  H
  H37      1.0000 0.76610  0.19570  0.16130  Biso   1.000  H
  H38      1.0000 0.73390  0.69570  0.33870  Biso   1.000  H
  H39      1.0000 0.23390  0.80430  0.83870  Biso   1.000  H
  H40      1.0000 0.26610  0.30430  0.66130  Biso   1.000  H
  C57      1.0000 0.92570  0.21640  0.15520  Biso   1.000  C
  C58      1.0000 0.57430  0.71640  0.34480  Biso   1.000  C
  C59      1.0000 0.07430  0.78360  0.84480  Biso   1.000  C
  C60      1.0000 0.42570  0.28360  0.65520  Biso   1.000  C
  H41      1.0000 0.70640  0.97690  0.55140  Biso   1.000  H
  H42      1.0000 0.79360  0.47690  0.94860  Biso   1.000  H
  H43      1.0000 0.29360  0.02310  0.44860  Biso   1.000  H
  H44      1.0000 0.20640  0.52310  0.05140  Biso   1.000  H
  H45      1.0000 0.75360  0.91820  0.58140  Biso   1.000  H
  H46      1.0000 0.74640  0.41820  0.91860  Biso   1.000  H
  H47      1.0000 0.24640  0.08180  0.41860  Biso   1.000  H
  H48      1.0000 0.25360  0.58180  0.08140  Biso   1.000  H
  C61      1.0000 0.58590  0.91410  0.55240  Biso   1.000  C
  C62      1.0000 0.91410  0.41410  0.94760  Biso   1.000  C
  C63      1.0000 0.41410  0.08590  0.44760  Biso   1.000  C
  C64      1.0000 0.08590  0.58590  0.05240  Biso   1.000  C
  N25      1.0000 0.92310  0.18330  0.10730  Biso   1.000  N
  N26      1.0000 0.57690  0.68330  0.39270  Biso   1.000  N
  N27      1.0000 0.07690  0.81670  0.89270  Biso   1.000  N
  N28      1.0000 0.42310  0.31670  0.60730  Biso   1.000  N
  H49      1.0000 0.91320  0.25860  0.14710  Biso   1.000  H
  H50      1.0000 0.58680  0.75860  0.35290  Biso   1.000  H
  H51      1.0000 0.08680  0.74140  0.85290  Biso   1.000  H
  H52      1.0000 0.41320  0.24140  0.64710  Biso   1.000  H
  H53      1.0000 0.99970  0.21230  0.17710  Biso   1.000  H
  H54      1.0000 0.50030  0.71230  0.32290  Biso   1.000  H
  H55      1.0000 0.00030  0.78770  0.82290  Biso   1.000  H
  H56      1.0000 0.49970  0.28770  0.67710  Biso   1.000  H
  N29      1.0000 0.56080  0.93410  0.60131  Biso   1.000  N
  N30      1.0000 0.93920  0.43410  0.89869  Biso   1.000  N
  N31      1.0000 0.43920  0.06590  0.39869  Biso   1.000  N
  N32      1.0000 0.06080  0.56590  0.10131  Biso   1.000  N
  H57      1.0000 0.53330  0.93170  0.52360  Biso   1.000  H
  H58      1.0000 0.96670  0.43170  0.97640  Biso   1.000  H
  H59      1.0000 0.46670  0.06830  0.47640  Biso   1.000  H
  H60      1.0000 0.03330  0.56830  0.02360  Biso   1.000  H
  H61      1.0000 0.57990  0.87070  0.54970  Biso   1.000  H
  H62      1.0000 0.92010  0.37070  0.95030  Biso   1.000  H
  H63      1.0000 0.42010  0.12930  0.45030  Biso   1.000  H
  H64      1.0000 0.07990  0.62930  0.04970  Biso   1.000  H
  C65      1.0000 0.00700  0.14300  0.10490  Biso   1.000  C
  C66      1.0000 0.49300  0.64300  0.39510  Biso   1.000  C
  C67      1.0000 0.99300  0.85700  0.89510  Biso   1.000  C
  C68      1.0000 0.50700  0.35700  0.60490  Biso   1.000  C
  C69      1.0000 0.83600  0.19540  0.06900  Biso   1.000  C
  C70      1.0000 0.66400  0.69540  0.43100  Biso   1.000  C
  C71      1.0000 0.16400  0.80460  0.93100  Biso   1.000  C
  C72      1.0000 0.33600  0.30460  0.56900  Biso   1.000  C
  C73      1.0000 0.58810  0.89610  0.64200  Biso   1.000  C
  C74      1.0000 0.91190  0.39610  0.85800  Biso   1.000  C
  C75      1.0000 0.41190  0.10390  0.35800  Biso   1.000  C
  C76      1.0000 0.08810  0.60390  0.14200  Biso   1.000  C
  C77      1.0000 0.52200  0.99030  0.60360  Biso   1.000  C
  C78      1.0000 0.97800  0.49030  0.89640  Biso   1.000  C
  C79      1.0000 0.47800  0.00970  0.39640  Biso   1.000  C
  C80      1.0000 0.02200  0.50970  0.10360  Biso   1.000  C
  O41      1.0000 0.08240  0.13470  0.14000  Biso   1.000  O
  O42      1.0000 0.41760  0.63470  0.36000  Biso   1.000  O
  O43      1.0000 0.91760  0.86530  0.86000  Biso   1.000  O
  O44      1.0000 0.58240  0.36530  0.64000  Biso   1.000  O
  N33      1.0000 0.99820  0.11450  0.05920  Biso   1.000  N
  N34      1.0000 0.50180  0.61450  0.44080  Biso   1.000  N
  N35      1.0000 0.00180  0.88550  0.94080  Biso   1.000  N
  N36      1.0000 0.49820  0.38550  0.55920  Biso   1.000  N
  O45      1.0000 0.76510  0.23100  0.07310  Biso   1.000  O
  O46      1.0000 0.73490  0.73100  0.42690  Biso   1.000  O
  O47      1.0000 0.23490  0.76900  0.92690  Biso   1.000  O
  O48      1.0000 0.26510  0.26900  0.57310  Biso   1.000  O
  N37      1.0000 0.83180  0.16430  0.02550  Biso   1.000  N
  N38      1.0000 0.66820  0.66430  0.47450  Biso   1.000  N
  N39      1.0000 0.16820  0.83570  0.97450  Biso   1.000  N
  N40      1.0000 0.33180  0.33570  0.52550  Biso   1.000  N
  O49      1.0000 0.62720  0.84820  0.63909  Biso   1.000  O
  O50      1.0000 0.87280  0.34820  0.86091  Biso   1.000  O
  O51      1.0000 0.37280  0.15180  0.36091  Biso   1.000  O
  O52      1.0000 0.12720  0.65180  0.13909  Biso   1.000  O
  N41      1.0000 0.56660  0.91850  0.68789  Biso   1.000  N
  N42      1.0000 0.93340  0.41850  0.81211  Biso   1.000  N
  N43      1.0000 0.43340  0.08150  0.31211  Biso   1.000  N
  N44      1.0000 0.06660  0.58150  0.18789  Biso   1.000  N
  O53      1.0000 0.50400  0.02220  0.56625  Biso   1.000  O
  O54      1.0000 0.99600  0.52220  0.93375  Biso   1.000  O
  O55      1.0000 0.49600  0.97780  0.43375  Biso   1.000  O
  O56      1.0000 0.00400  0.47780  0.06625  Biso   1.000  O
  N45      1.0000 0.50520  0.00870  0.65090  Biso   1.000  N
  N46      1.0000 0.99480  0.50870  0.84910  Biso   1.000  N
  N47      1.0000 0.49480  0.99130  0.34910  Biso   1.000  N
  N48      1.0000 0.00520  0.49130  0.15090  Biso   1.000  N
  C81      1.0000 0.08430  0.07210  0.05420  Biso   1.000  C
  C82      1.0000 0.41570  0.57210  0.44580  Biso   1.000  C
  C83      1.0000 0.91570  0.92790  0.94580  Biso   1.000  C
  C84      1.0000 0.58430  0.42790  0.55420  Biso   1.000  C
  C85      1.0000 0.90940  0.12170  0.01880  Biso   1.000  C
  C86      1.0000 0.59060  0.62170  0.48120  Biso   1.000  C
  C87      1.0000 0.09060  0.87830  0.98120  Biso   1.000  C
  C88      1.0000 0.40940  0.37830  0.51880  Biso   1.000  C
  C89      1.0000 0.73400  0.17430  0.98440  Biso   1.000  C
  C90      1.0000 0.76600  0.67430  0.51560  Biso   1.000  C
  C91      1.0000 0.26600  0.82570  0.01560  Biso   1.000  C
  C92      1.0000 0.23400  0.32570  0.48440  Biso   1.000  C
  C93      1.0000 0.59000  0.88130  0.73340  Biso   1.000  C
  C94      1.0000 0.91000  0.38130  0.76660  Biso   1.000  C
  C95      1.0000 0.41000  0.11870  0.26660  Biso   1.000  C
  C96      1.0000 0.09000  0.61870  0.23340  Biso   1.000  C
  C97      1.0000 0.52350  0.97390  0.69340  Biso   1.000  C
  C98      1.0000 0.97650  0.47390  0.80660  Biso   1.000  C
  C99      1.0000 0.47650  0.02610  0.30660  Biso   1.000  C
  C100     1.0000 0.02350  0.52610  0.19340  Biso   1.000  C
  C101     1.0000 0.45690  0.06730  0.65450  Biso   1.000  C
  C102     1.0000 0.04310  0.56730  0.84550  Biso   1.000  C
  C103     1.0000 0.54310  0.93270  0.34550  Biso   1.000  C
  C104     1.0000 0.95690  0.43270  0.15450  Biso   1.000  C
  C105     1.0000 0.16830  0.09770  0.02530  Biso   1.000  C
  C106     1.0000 0.33170  0.59770  0.47470  Biso   1.000  C
  C107     1.0000 0.83170  0.90230  0.97470  Biso   1.000  C
  C108     1.0000 0.66830  0.40230  0.52530  Biso   1.000  C
  H65      1.0000 0.04980  0.03690  0.03600  Biso   1.000  H
  H66      1.0000 0.45020  0.53690  0.46400  Biso   1.000  H
  H67      1.0000 0.95020  0.96310  0.96400  Biso   1.000  H
  H68      1.0000 0.54980  0.46310  0.53600  Biso   1.000  H
  H69      1.0000 0.12270  0.05970  0.08850  Biso   1.000  H
  H70      1.0000 0.37730  0.55970  0.41150  Biso   1.000  H
  H71      1.0000 0.87730  0.94030  0.91150  Biso   1.000  H
  H72      1.0000 0.62270  0.44030  0.58850  Biso   1.000  H
  O57      1.0000 0.90370  0.09290  0.98010  Biso   1.000  O
  O58      1.0000 0.59630  0.59290  0.51990  Biso   1.000  O
  O59      1.0000 0.09630  0.90710  0.01990  Biso   1.000  O
  O60      1.0000 0.40370  0.40710  0.48010  Biso   1.000  O
  C109     1.0000 0.74160  0.23800  0.95310  Biso   1.000  C
  C110     1.0000 0.75840  0.73800  0.54690  Biso   1.000  C
  C111     1.0000 0.25840  0.76200  0.04690  Biso   1.000  C
  C112     1.0000 0.24160  0.26200  0.45310  Biso   1.000  C
  H73      1.0000 0.66660  0.17470  0.99940  Biso   1.000  H
  H74      1.0000 0.83340  0.67470  0.50060  Biso   1.000  H
  H75      1.0000 0.33340  0.82530  0.00060  Biso   1.000  H
  H76      1.0000 0.16660  0.32530  0.49940  Biso   1.000  H
  H77      1.0000 0.72730  0.14140  0.95990  Biso   1.000  H
  H78      1.0000 0.77270  0.64140  0.54010  Biso   1.000  H
  H79      1.0000 0.27270  0.85860  0.04010  Biso   1.000  H
  H80      1.0000 0.22730  0.35860  0.45990  Biso   1.000  H
  C113     1.0000 0.70080  0.89630  0.76690  Biso   1.000  C
  C114     1.0000 0.79920  0.39630  0.73310  Biso   1.000  C
  C115     1.0000 0.29920  0.10370  0.23310  Biso   1.000  C
  C116     1.0000 0.20080  0.60370  0.26690  Biso   1.000  C
  H81      1.0000 0.59010  0.83950  0.72300  Biso   1.000  H
  H82      1.0000 0.90990  0.33950  0.77700  Biso   1.000  H
  H83      1.0000 0.40990  0.16050  0.27700  Biso   1.000  H
  H84      1.0000 0.09010  0.66050  0.22300  Biso   1.000  H
  H85      1.0000 0.53070  0.88650  0.75320  Biso   1.000  H
  H86      1.0000 0.96930  0.38650  0.74680  Biso   1.000  H
  H87      1.0000 0.46930  0.11350  0.24680  Biso   1.000  H
  H88      1.0000 0.03070  0.61350  0.25320  Biso   1.000  H
  O61      1.0000 0.50450  0.99010  0.73363  Biso   1.000  O
  O62      1.0000 0.99550  0.49010  0.76637  Biso   1.000  O
  O63      1.0000 0.49550  0.00990  0.26637  Biso   1.000  O
  O64      1.0000 0.00450  0.50990  0.23363  Biso   1.000  O
  C117     1.0000 0.54200  0.11430  0.66970  Biso   1.000  C
  C118     1.0000 0.95800  0.61430  0.83030  Biso   1.000  C
  C119     1.0000 0.45800  0.88570  0.33030  Biso   1.000  C
  C120     1.0000 0.04200  0.38570  0.16970  Biso   1.000  C
  H89      1.0000 0.40790  0.06590  0.67970  Biso   1.000  H
  H90      1.0000 0.09210  0.56590  0.82030  Biso   1.000  H
  H91      1.0000 0.59210  0.93410  0.32030  Biso   1.000  H
  H92      1.0000 0.90790  0.43410  0.17970  Biso   1.000  H
  H93      1.0000 0.41100  0.07760  0.62110  Biso   1.000  H
  H94      1.0000 0.08900  0.57760  0.87890  Biso   1.000  H
  H95      1.0000 0.58900  0.92240  0.37890  Biso   1.000  H
  H96      1.0000 0.91100  0.42240  0.12110  Biso   1.000  H
  O65      1.0000 0.22820  0.14530  0.05310  Biso   1.000  O
  O66      1.0000 0.27180  0.64530  0.44690  Biso   1.000  O
  O67      1.0000 0.77180  0.85470  0.94690  Biso   1.000  O
  O68      1.0000 0.72820  0.35470  0.55310  Biso   1.000  O
  H97      1.0000 0.22080  0.06660  0.01970  Biso   1.000  H
  H98      1.0000 0.27920  0.56660  0.48030  Biso   1.000  H
  H99      1.0000 0.77920  0.93340  0.98030  Biso   1.000  H
  H100     1.0000 0.72080  0.43340  0.51970  Biso   1.000  H
  H101     1.0000 0.12960  0.11200  0.99160  Biso   1.000  H
  H102     1.0000 0.37040  0.61200  0.50840  Biso   1.000  H
  H103     1.0000 0.87040  0.88800  0.00840  Biso   1.000  H
  H104     1.0000 0.62960  0.38800  0.49160  Biso   1.000  H
  O69      1.0000 0.77960  0.22270  0.90650  Biso   1.000  O
  O70      1.0000 0.72040  0.72270  0.59350  Biso   1.000  O
  O71      1.0000 0.22040  0.77730  0.09350  Biso   1.000  O
  O72      1.0000 0.27960  0.27730  0.40650  Biso   1.000  O
  H105     1.0000 0.66820  0.25710  0.94500  Biso   1.000  H
  H106     1.0000 0.83180  0.75710  0.55500  Biso   1.000  H
  H107     1.0000 0.33180  0.74290  0.05500  Biso   1.000  H
  H108     1.0000 0.16820  0.24290  0.44500  Biso   1.000  H
  H109     1.0000 0.79430  0.26530  0.97400  Biso   1.000  H
  H110     1.0000 0.70570  0.76530  0.52600  Biso   1.000  H
  H111     1.0000 0.20570  0.73470  0.02600  Biso   1.000  H
  H112     1.0000 0.29430  0.23470  0.47400  Biso   1.000  H
  O73      1.0000 0.78880  0.89050  0.73821  Biso   1.000  O
  O74      1.0000 0.71120  0.39050  0.76179  Biso   1.000  O
  O75      1.0000 0.21120  0.10950  0.26179  Biso   1.000  O
  O76      1.0000 0.28880  0.60950  0.23821  Biso   1.000  O
  H113     1.0000 0.69910  0.93700  0.77960  Biso   1.000  H
  H114     1.0000 0.80090  0.43700  0.72040  Biso   1.000  H
  H115     1.0000 0.30090  0.06300  0.22040  Biso   1.000  H
  H116     1.0000 0.19910  0.56300  0.27960  Biso   1.000  H
  H117     1.0000 0.71510  0.86950  0.79660  Biso   1.000  H
  H118     1.0000 0.78490  0.36950  0.70340  Biso   1.000  H
  H119     1.0000 0.28490  0.13050  0.20340  Biso   1.000  H
  H120     1.0000 0.21510  0.63050  0.29660  Biso   1.000  H
  O77      1.0000 0.60810  0.12230  0.63018  Biso   1.000  O
  O78      1.0000 0.89190  0.62230  0.86982  Biso   1.000  O
  O79      1.0000 0.39190  0.87770  0.36982  Biso   1.000  O
  O80      1.0000 0.10810  0.37770  0.13018  Biso   1.000  O
  H121     1.0000 0.50490  0.15170  0.67510  Biso   1.000  H
  H122     1.0000 0.99510  0.65170  0.82490  Biso   1.000  H
  H123     1.0000 0.49510  0.84830  0.32490  Biso   1.000  H
  H124     1.0000 0.00490  0.34830  0.17510  Biso   1.000  H
  H125     1.0000 0.59100  0.10330  0.70220  Biso   1.000  H
  H126     1.0000 0.90900  0.60330  0.79780  Biso   1.000  H
  H127     1.0000 0.40900  0.89670  0.29780  Biso   1.000  H
  H128     1.0000 0.09100  0.39670  0.20220  Biso   1.000  H
  C121     1.0000 0.31900  0.13110  0.08700  Biso   1.000  C
  C122     1.0000 0.18100  0.63110  0.41300  Biso   1.000  C
  C123     1.0000 0.68100  0.86890  0.91300  Biso   1.000  C
  C124     1.0000 0.81900  0.36890  0.58700  Biso   1.000  C
  C125     1.0000 0.88770  0.21530  0.91150  Biso   1.000  C
  C126     1.0000 0.61230  0.71530  0.58850  Biso   1.000  C
  C127     1.0000 0.11230  0.78470  0.08850  Biso   1.000  C
  C128     1.0000 0.38770  0.28470  0.41150  Biso   1.000  C
  C129     1.0000 0.82630  0.83600  0.73320  Biso   1.000  C
  C130     1.0000 0.67370  0.33600  0.76680  Biso   1.000  C
  C131     1.0000 0.17370  0.16400  0.26680  Biso   1.000  C
  C132     1.0000 0.32630  0.66400  0.23320  Biso   1.000  C
  C133     1.0000 0.56090  0.15100  0.58960  Biso   1.000  C
  C134     1.0000 0.93910  0.65100  0.91040  Biso   1.000  C
  C135     1.0000 0.43910  0.84900  0.41040  Biso   1.000  C
  C136     1.0000 0.06090  0.34900  0.08960  Biso   1.000  C
  O81      1.0000 0.35550  0.08310  0.09490  Biso   1.000  O
  O82      1.0000 0.14450  0.58310  0.40510  Biso   1.000  O
  O83      1.0000 0.64450  0.91690  0.90510  Biso   1.000  O
  O84      1.0000 0.85550  0.41690  0.59490  Biso   1.000  O
  C137     1.0000 0.36850  0.18390  0.11650  Biso   1.000  C
  C138     1.0000 0.13150  0.68390  0.38350  Biso   1.000  C
  C139     1.0000 0.63150  0.81610  0.88350  Biso   1.000  C
  C140     1.0000 0.86850  0.31610  0.61650  Biso   1.000  C
  O85      1.0000 0.95180  0.21990  0.94930  Biso   1.000  O
  O86      1.0000 0.54820  0.71990  0.55070  Biso   1.000  O
  O87      1.0000 0.04820  0.78010  0.05070  Biso   1.000  O
  O88      1.0000 0.45180  0.28010  0.44930  Biso   1.000  O
  C141     1.0000 0.91620  0.19750  0.86170  Biso   1.000  C
  C142     1.0000 0.58380  0.69750  0.63830  Biso   1.000  C
  C143     1.0000 0.08380  0.80250  0.13830  Biso   1.000  C
  C144     1.0000 0.41620  0.30250  0.36170  Biso   1.000  C
  O89      1.0000 0.80200  0.79260  0.75442  Biso   1.000  O
  O90      1.0000 0.69800  0.29260  0.74558  Biso   1.000  O
  O91      1.0000 0.19800  0.20740  0.24558  Biso   1.000  O
  O92      1.0000 0.30200  0.70740  0.25442  Biso   1.000  O
  C145     1.0000 0.90330  0.83560  0.69540  Biso   1.000  C
  C146     1.0000 0.59670  0.33560  0.80460  Biso   1.000  C
  C147     1.0000 0.09670  0.16440  0.30460  Biso   1.000  C
  C148     1.0000 0.40330  0.66440  0.19540  Biso   1.000  C
  O93      1.0000 0.47030  0.17520  0.58360  Biso   1.000  O
  O94      1.0000 0.02970  0.67520  0.91640  Biso   1.000  O
  O95      1.0000 0.52970  0.82480  0.41640  Biso   1.000  O
  O96      1.0000 0.97030  0.32480  0.08360  Biso   1.000  O
  C149     1.0000 0.63030  0.15300  0.55000  Biso   1.000  C
  C150     1.0000 0.86970  0.65300  0.95000  Biso   1.000  C
  C151     1.0000 0.36970  0.84700  0.45000  Biso   1.000  C
  C152     1.0000 0.13030  0.34700  0.05000  Biso   1.000  C
  C153     1.0000 0.31510  0.23690  0.11350  Biso   1.000  C
  C154     1.0000 0.18490  0.73690  0.38650  Biso   1.000  C
  C155     1.0000 0.68490  0.76310  0.88650  Biso   1.000  C
  C156     1.0000 0.81510  0.26310  0.61350  Biso   1.000  C
  C157     1.0000 0.47010  0.17980  0.14860  Biso   1.000  C
  C158     1.0000 0.02990  0.67980  0.35140  Biso   1.000  C
  C159     1.0000 0.52990  0.82020  0.85140  Biso   1.000  C
  C160     1.0000 0.97010  0.32020  0.64860  Biso   1.000  C
  C161     1.0000 0.02240  0.17820  0.86180  Biso   1.000  C
  C162     1.0000 0.47760  0.67820  0.63820  Biso   1.000  C
  C163     1.0000 0.97760  0.82180  0.13820  Biso   1.000  C
  C164     1.0000 0.52240  0.32180  0.36180  Biso   1.000  C
  C165     1.0000 0.84190  0.19970  0.81530  Biso   1.000  C
  C166     1.0000 0.65810  0.69970  0.68470  Biso   1.000  C
  C167     1.0000 0.15810  0.80030  0.18470  Biso   1.000  C
  C168     1.0000 0.34190  0.30030  0.31530  Biso   1.000  C
  C169     1.0000 0.91840  0.88560  0.66840  Biso   1.000  C
  C170     1.0000 0.58160  0.38560  0.83160  Biso   1.000  C
  C171     1.0000 0.08160  0.11440  0.33160  Biso   1.000  C
  C172     1.0000 0.41840  0.61440  0.16840  Biso   1.000  C
  C173     1.0000 0.95650  0.78490  0.68720  Biso   1.000  C
  C174     1.0000 0.54350  0.28490  0.81280  Biso   1.000  C
  C175     1.0000 0.04350  0.21510  0.31280  Biso   1.000  C
  C176     1.0000 0.45650  0.71510  0.18720  Biso   1.000  C
  C177     1.0000 0.60790  0.19520  0.51190  Biso   1.000  C
  C178     1.0000 0.89210  0.69520  0.98810  Biso   1.000  C
  C179     1.0000 0.39210  0.80480  0.48810  Biso   1.000  C
  C180     1.0000 0.10790  0.30480  0.01190  Biso   1.000  C
  C181     1.0000 0.71770  0.11450  0.54920  Biso   1.000  C
  C182     1.0000 0.78230  0.61450  0.95080  Biso   1.000  C
  C183     1.0000 0.28230  0.88550  0.45080  Biso   1.000  C
  C184     1.0000 0.21770  0.38550  0.04920  Biso   1.000  C
  C185     1.0000 0.36340  0.28370  0.14090  Biso   1.000  C
  C186     1.0000 0.13660  0.78370  0.35910  Biso   1.000  C
  C187     1.0000 0.63660  0.71630  0.85910  Biso   1.000  C
  C188     1.0000 0.86340  0.21630  0.64090  Biso   1.000  C
  H129     1.0000 0.24420  0.24110  0.09230  Biso   1.000  H
  H130     1.0000 0.25580  0.74110  0.40770  Biso   1.000  H
  H131     1.0000 0.75580  0.75890  0.90770  Biso   1.000  H
  H132     1.0000 0.74420  0.25890  0.59230  Biso   1.000  H
  H133     1.0000 0.50930  0.14360  0.15200  Biso   1.000  H
  H134     1.0000 0.99070  0.64360  0.34800  Biso   1.000  H
  H135     1.0000 0.49070  0.85640  0.84800  Biso   1.000  H
  H136     1.0000 0.00930  0.35640  0.65200  Biso   1.000  H
  C189     1.0000 0.51400  0.22820  0.17570  Biso   1.000  C
  C190     1.0000 0.98600  0.72820  0.32430  Biso   1.000  C
  C191     1.0000 0.48600  0.77180  0.82430  Biso   1.000  C
  C192     1.0000 0.01400  0.27180  0.67570  Biso   1.000  C
  C193     1.0000 0.05070  0.16230  0.81600  Biso   1.000  C
  C194     1.0000 0.44930  0.66230  0.68400  Biso   1.000  C
  C195     1.0000 0.94930  0.83770  0.18400  Biso   1.000  C
  C196     1.0000 0.55070  0.33770  0.31600  Biso   1.000  C
  H137     1.0000 0.07510  0.17580  0.89280  Biso   1.000  H
  H138     1.0000 0.42490  0.67580  0.60720  Biso   1.000  H
  H139     1.0000 0.92490  0.82420  0.10720  Biso   1.000  H
  H140     1.0000 0.57510  0.32420  0.39280  Biso   1.000  H
  H141     1.0000 0.76740  0.21150  0.81390  Biso   1.000  H
  H142     1.0000 0.73260  0.71150  0.68610  Biso   1.000  H
  H143     1.0000 0.23260  0.78850  0.18610  Biso   1.000  H
  H144     1.0000 0.26740  0.28850  0.31390  Biso   1.000  H
  C197     1.0000 0.87780  0.18490  0.77230  Biso   1.000  C
  C198     1.0000 0.62220  0.68490  0.72770  Biso   1.000  C
  C199     1.0000 0.12220  0.81510  0.22770  Biso   1.000  C
  C200     1.0000 0.37780  0.31510  0.27230  Biso   1.000  C
  C201     1.0000 0.98780  0.88310  0.63440  Biso   1.000  C
  C202     1.0000 0.51220  0.38310  0.86560  Biso   1.000  C
  C203     1.0000 0.01220  0.11690  0.36560  Biso   1.000  C
  C204     1.0000 0.48780  0.61690  0.13440  Biso   1.000  C
  H145     1.0000 0.88120  0.92110  0.67330  Biso   1.000  H
  H146     1.0000 0.61880  0.42110  0.82670  Biso   1.000  H
  H147     1.0000 0.11880  0.07890  0.32670  Biso   1.000  H
  H148     1.0000 0.38120  0.57890  0.17330  Biso   1.000  H
  H149     1.0000 0.94750  0.75000  0.70540  Biso   1.000  H
  H150     1.0000 0.55250  0.25000  0.79460  Biso   1.000  H
  H151     1.0000 0.05250  0.25000  0.29460  Biso   1.000  H
  H152     1.0000 0.44750  0.75000  0.20540  Biso   1.000  H
  C205     1.0000 0.02340  0.78590  0.65170  Biso   1.000  C
  C206     1.0000 0.47660  0.28590  0.84830  Biso   1.000  C
  C207     1.0000 0.97660  0.21410  0.34830  Biso   1.000  C
  C208     1.0000 0.52340  0.71410  0.15170  Biso   1.000  C
  C209     1.0000 0.67270  0.19790  0.47530  Biso   1.000  C
  C210     1.0000 0.82730  0.69790  0.02470  Biso   1.000  C
  C211     1.0000 0.32730  0.80210  0.52470  Biso   1.000  C
  C212     1.0000 0.17270  0.30210  0.97530  Biso   1.000  C
  H153     1.0000 0.54840  0.22200  0.51100  Biso   1.000  H
  H154     1.0000 0.95160  0.72200  0.98900  Biso   1.000  H
  H155     1.0000 0.45160  0.77800  0.48900  Biso   1.000  H
  H156     1.0000 0.04840  0.27800  0.01100  Biso   1.000  H
  H157     1.0000 0.73590  0.08500  0.57450  Biso   1.000  H
  H158     1.0000 0.76410  0.58500  0.92550  Biso   1.000  H
  H159     1.0000 0.26410  0.91500  0.42550  Biso   1.000  H
  H160     1.0000 0.23590  0.41500  0.07450  Biso   1.000  H
  C213     1.0000 0.77680  0.11980  0.51150  Biso   1.000  C
  C214     1.0000 0.72320  0.61980  0.98850  Biso   1.000  C
  C215     1.0000 0.22320  0.88020  0.48850  Biso   1.000  C
  C216     1.0000 0.27680  0.38020  0.01150  Biso   1.000  C
  H161     1.0000 0.32520  0.32020  0.13790  Biso   1.000  H
  H162     1.0000 0.17480  0.82020  0.36210  Biso   1.000  H
  H163     1.0000 0.67480  0.67980  0.86210  Biso   1.000  H
  H164     1.0000 0.82520  0.17980  0.63790  Biso   1.000  H
  H165     1.0000 0.58360  0.22470  0.19800  Biso   1.000  H
  H166     1.0000 0.91640  0.72470  0.30200  Biso   1.000  H
  H167     1.0000 0.41640  0.77530  0.80200  Biso   1.000  H
  H168     1.0000 0.08360  0.27530  0.69800  Biso   1.000  H
  H169     1.0000 0.12330  0.14790  0.81640  Biso   1.000  H
  H170     1.0000 0.37670  0.64790  0.68360  Biso   1.000  H
  H171     1.0000 0.87670  0.85210  0.18360  Biso   1.000  H
  H172     1.0000 0.62330  0.35210  0.31640  Biso   1.000  H
  H173     1.0000 0.82710  0.18770  0.74080  Biso   1.000  H
  H174     1.0000 0.67290  0.68770  0.75920  Biso   1.000  H
  H175     1.0000 0.17290  0.81230  0.25920  Biso   1.000  H
  H176     1.0000 0.32710  0.31230  0.24080  Biso   1.000  H
  N49      1.0000 0.04120  0.83410  0.62570  Biso   1.000  N
  N50      1.0000 0.45880  0.33410  0.87430  Biso   1.000  N
  N51      1.0000 0.95880  0.16590  0.37430  Biso   1.000  N
  N52      1.0000 0.54120  0.66590  0.12570  Biso   1.000  N
  H177     1.0000 0.99870  0.91780  0.61620  Biso   1.000  H
  H178     1.0000 0.50130  0.41780  0.88380  Biso   1.000  H
  H179     1.0000 0.00130  0.08220  0.38380  Biso   1.000  H
  H180     1.0000 0.49870  0.58220  0.11620  Biso   1.000  H
  H181     1.0000 0.05900  0.75040  0.64520  Biso   1.000  H
  H182     1.0000 0.44100  0.25040  0.85480  Biso   1.000  H
  H183     1.0000 0.94100  0.24960  0.35480  Biso   1.000  H
  H184     1.0000 0.55900  0.74960  0.14520  Biso   1.000  H
  N53      1.0000 0.75600  0.16050  0.47490  Biso   1.000  N
  N54      1.0000 0.74400  0.66050  0.02510  Biso   1.000  N
  N55      1.0000 0.24400  0.83950  0.52510  Biso   1.000  N
  N56      1.0000 0.25600  0.33950  0.97490  Biso   1.000  N
  H185     1.0000 0.65750  0.22710  0.44960  Biso   1.000  H
  H186     1.0000 0.84250  0.72710  0.05040  Biso   1.000  H
  H187     1.0000 0.34250  0.77290  0.55040  Biso   1.000  H
  H188     1.0000 0.15750  0.27290  0.94960  Biso   1.000  H
  H189     1.0000 0.83600  0.09320  0.51110  Biso   1.000  H
  H190     1.0000 0.66400  0.59320  0.98890  Biso   1.000  H
  H191     1.0000 0.16400  0.90680  0.48890  Biso   1.000  H
  H192     1.0000 0.33600  0.40680  0.01110  Biso   1.000  H
  Cu5      1.0000 0.15005  0.83389  0.57838  Biso   1.000  Cu
  Cu6      1.0000 0.34995  0.33389  0.92162  Biso   1.000  Cu
  Cu7      1.0000 0.84995  0.16611  0.42162  Biso   1.000  Cu
  Cu8      1.0000 0.65005  0.66611  0.07838  Biso   1.000  Cu
  O97      1.0000 0.27300  0.77790  0.63570  Biso   1.000  O
  O98      1.0000 0.22700  0.27790  0.86430  Biso   1.000  O
  O99      1.0000 0.72700  0.22210  0.36430  Biso   1.000  O
  O100     1.0000 0.77300  0.72210  0.13570  Biso   1.000  O
  C217     1.0000 0.34580  0.80010  0.67670  Biso   1.000  C
  C218     1.0000 0.15420  0.30010  0.82330  Biso   1.000  C
  C219     1.0000 0.65420  0.19990  0.32330  Biso   1.000  C
  C220     1.0000 0.84580  0.69990  0.17670  Biso   1.000  C
  H193     1.0000 0.38890  0.76790  0.69500  Biso   1.000  H
  H194     1.0000 0.11110  0.26790  0.80500  Biso   1.000  H
  H195     1.0000 0.61110  0.23210  0.30500  Biso   1.000  H
  H196     1.0000 0.88890  0.73210  0.19500  Biso   1.000  H
  H197     1.0000 0.39580  0.82800  0.66480  Biso   1.000  H
  H198     1.0000 0.10420  0.32800  0.83520  Biso   1.000  H
  H199     1.0000 0.60420  0.17200  0.33520  Biso   1.000  H
  H200     1.0000 0.89580  0.67200  0.16480  Biso   1.000  H
  H201     1.0000 0.30470  0.82020  0.69950  Biso   1.000  H
  H202     1.0000 0.19530  0.32020  0.80050  Biso   1.000  H
  H203     1.0000 0.69530  0.17980  0.30050  Biso   1.000  H
  H204     1.0000 0.80470  0.67980  0.19950  Biso   1.000  H
  O101     1.0000 0.15700  0.92220  0.58510  Biso   1.000  O
  O102     1.0000 0.34300  0.42220  0.91490  Biso   1.000  O
  O103     1.0000 0.84300  0.07780  0.41490  Biso   1.000  O
  O104     1.0000 0.65700  0.57780  0.08510  Biso   1.000  O
  N57      1.0000 0.24870  0.93970  0.60960  Biso   1.000  N
  N58      1.0000 0.25130  0.43970  0.89040  Biso   1.000  N
  N59      1.0000 0.75130  0.06030  0.39040  Biso   1.000  N
  N60      1.0000 0.74870  0.56030  0.10960  Biso   1.000  N
  O105     1.0000 0.26110  0.99290  0.62140  Biso   1.000  O
  O106     1.0000 0.23890  0.49290  0.87860  Biso   1.000  O
  O107     1.0000 0.73890  0.00710  0.37860  Biso   1.000  O
  O108     1.0000 0.76110  0.50710  0.12140  Biso   1.000  O
  O109     1.0000 0.33380  0.90810  0.61800  Biso   1.000  O
  O110     1.0000 0.16620  0.40810  0.88200  Biso   1.000  O
  O111     1.0000 0.66620  0.09190  0.38200  Biso   1.000  O
  O112     1.0000 0.83380  0.59190  0.11800  Biso   1.000  O
  O113     1.0000 0.10050  0.75410  0.55290  Biso   1.000  O
  O114     1.0000 0.39950  0.25410  0.94710  Biso   1.000  O
  O115     1.0000 0.89950  0.24590  0.44710  Biso   1.000  O
  O116     1.0000 0.60050  0.74590  0.05290  Biso   1.000  O
  O117     1.0000 0.00580  0.80170  0.49270  Biso   1.000  O
  O118     1.0000 0.49420  0.30170  0.00730  Biso   1.000  O
  O119     1.0000 0.99420  0.19830  0.50730  Biso   1.000  O
  O120     1.0000 0.50580  0.69830  0.99270  Biso   1.000  O
  N61      1.0000 0.04120  0.75200  0.50860  Biso   1.000  N
  N62      1.0000 0.45880  0.25200  0.99140  Biso   1.000  N
  N63      1.0000 0.95880  0.24800  0.49140  Biso   1.000  N
  N64      1.0000 0.54120  0.74800  0.00860  Biso   1.000  N
  O121     1.0000 0.02340  0.70330  0.48630  Biso   1.000  O
  O122     1.0000 0.47660  0.20330  0.01370  Biso   1.000  O
  O123     1.0000 0.97660  0.29670  0.51370  Biso   1.000  O
  O124     1.0000 0.52340  0.79670  0.98630  Biso   1.000  O
  H205     1.0000 0.26320  0.80270  0.61200  Biso   1.000  H
  H206     1.0000 0.23680  0.30270  0.88800  Biso   1.000  H
  H207     1.0000 0.73680  0.19730  0.38800  Biso   1.000  H
  H208     1.0000 0.76320  0.69730  0.11200  Biso   1.000  H
  Cl1      1.0000 0.28590  0.93070  0.90340  Biso   1.000  Cl
  Cl2      1.0000 0.21410  0.43070  0.59660  Biso   1.000  Cl
  Cl3      1.0000 0.71410  0.06930  0.09660  Biso   1.000  Cl
  Cl4      1.0000 0.78590  0.56930  0.40340  Biso   1.000  Cl
  Cl5      1.0000 0.37460  0.96210  0.00800  Biso   1.000  Cl
  Cl6      1.0000 0.12540  0.46210  0.49200  Biso   1.000  Cl
  Cl7      1.0000 0.62540  0.03790  0.99200  Biso   1.000  Cl
  Cl8      1.0000 0.87460  0.53790  0.50800  Biso   1.000  Cl
  C221     1.0000 0.39960  0.93010  0.95330  Biso   1.000  C
  C222     1.0000 0.10040  0.43010  0.54670  Biso   1.000  C
  C223     1.0000 0.60040  0.06990  0.04670  Biso   1.000  C
  C224     1.0000 0.89960  0.56990  0.45330  Biso   1.000  C
  H209     1.0000 0.42300  0.88890  0.96070  Biso   1.000  H
  H210     1.0000 0.07700  0.38890  0.53930  Biso   1.000  H
  H211     1.0000 0.57700  0.11110  0.03930  Biso   1.000  H
  H212     1.0000 0.92300  0.61110  0.46070  Biso   1.000  H
  H213     1.0000 0.46140  0.95100  0.94240  Biso   1.000  H
  H214     1.0000 0.03860  0.45100  0.55760  Biso   1.000  H
  H215     1.0000 0.53860  0.04900  0.05760  Biso   1.000  H
  H216     1.0000 0.96140  0.54900  0.44240  Biso   1.000  H
  Cl9      1.0000 0.60150  0.12870  0.85250  Biso   1.000  Cl
  Cl10     1.0000 0.89850  0.62870  0.64750  Biso   1.000  Cl
  Cl11     1.0000 0.39850  0.87130  0.14750  Biso   1.000  Cl
  Cl12     1.0000 0.10150  0.37130  0.35250  Biso   1.000  Cl
  Cl13     1.0000 0.53240  0.01300  0.85550  Biso   1.000  Cl
  Cl14     1.0000 0.96760  0.51300  0.64450  Biso   1.000  Cl
  Cl15     1.0000 0.46760  0.98700  0.14450  Biso   1.000  Cl
  Cl16     1.0000 0.03240  0.48700  0.35550  Biso   1.000  Cl
  C225     1.0000 0.66110  0.05460  0.82990  Biso   1.000  C
  C226     1.0000 0.83890  0.55460  0.67010  Biso   1.000  C
  C227     1.0000 0.33890  0.94540  0.17010  Biso   1.000  C
  C228     1.0000 0.16110  0.44540  0.32990  Biso   1.000  C
  H217     1.0000 0.73560  0.04400  0.84900  Biso   1.000  H
  H218     1.0000 0.76440  0.54400  0.65100  Biso   1.000  H
  H219     1.0000 0.26440  0.95600  0.15100  Biso   1.000  H
  H220     1.0000 0.23560  0.45600  0.34900  Biso   1.000  H
  H221     1.0000 0.65710  0.05190  0.79270  Biso   1.000  H
  H222     1.0000 0.84290  0.55190  0.70730  Biso   1.000  H
  H223     1.0000 0.34290  0.94810  0.20730  Biso   1.000  H
  H224     1.0000 0.15710  0.44810  0.29270  Biso   1.000  H
  O125     1.0000 0.76990  0.34140  0.42090  Biso   1.000  O
  O126     1.0000 0.73010  0.84140  0.07910  Biso   1.000  O
  O127     1.0000 0.23010  0.65860  0.57910  Biso   1.000  O
  O128     1.0000 0.26990  0.15860  0.92090  Biso   1.000  O
  H225     1.0000 0.80620  0.32050  0.44410  Biso   1.000  H
  H226     1.0000 0.69380  0.82050  0.05590  Biso   1.000  H
  H227     1.0000 0.19380  0.67950  0.55590  Biso   1.000  H
  H228     1.0000 0.30620  0.17950  0.94410  Biso   1.000  H
  C229     1.0000 0.82890  0.39850  0.41810  Biso   1.000  C
  C230     1.0000 0.67110  0.89850  0.08190  Biso   1.000  C
  C231     1.0000 0.17110  0.60150  0.58190  Biso   1.000  C
  C232     1.0000 0.32890  0.10150  0.91810  Biso   1.000  C
  H229     1.0000 0.81870  0.42370  0.44660  Biso   1.000  H
  H230     1.0000 0.68130  0.92370  0.05340  Biso   1.000  H
  H231     1.0000 0.18130  0.57630  0.55340  Biso   1.000  H
  H232     1.0000 0.31870  0.07630  0.94660  Biso   1.000  H
  H233     1.0000 0.79860  0.41810  0.38590  Biso   1.000  H
  H234     1.0000 0.70140  0.91810  0.11410  Biso   1.000  H
  H235     1.0000 0.20140  0.58190  0.61410  Biso   1.000  H
  H236     1.0000 0.29860  0.08190  0.88590  Biso   1.000  H
  H237     1.0000 0.90790  0.39100  0.42020  Biso   1.000  H
  H238     1.0000 0.59210  0.89100  0.07980  Biso   1.000  H
  H239     1.0000 0.09210  0.60900  0.57980  Biso   1.000  H
  H240     1.0000 0.40790  0.10900  0.92020  Biso   1.000  H
  O129     1.0000 0.00900  0.03030  0.89490  Biso   1.000  O
  O130     1.0000 0.49100  0.53030  0.60510  Biso   1.000  O
  O131     1.0000 0.99100  0.96970  0.10510  Biso   1.000  O
  O132     1.0000 0.50900  0.46970  0.39490  Biso   1.000  O
  H241     1.0000 0.98410  0.99770  0.90200  Biso   1.000  H
  H242     1.0000 0.51590  0.49770  0.59800  Biso   1.000  H
  H243     1.0000 0.01590  0.00230  0.09800  Biso   1.000  H
  H244     1.0000 0.48410  0.50230  0.40200  Biso   1.000  H
  C233     1.0000 0.14200  0.02580  0.90160  Biso   1.000  C
  C234     1.0000 0.35800  0.52580  0.59840  Biso   1.000  C
  C235     1.0000 0.85800  0.97420  0.09840  Biso   1.000  C
  C236     1.0000 0.64200  0.47420  0.40160  Biso   1.000  C
  H245     1.0000 0.16830  0.05570  0.88040  Biso   1.000  H
  H246     1.0000 0.33170  0.55570  0.61960  Biso   1.000  H
  H247     1.0000 0.83170  0.94430  0.11960  Biso   1.000  H
  H248     1.0000 0.66830  0.44430  0.38040  Biso   1.000  H
  H249     1.0000 0.16220  0.98670  0.89120  Biso   1.000  H
  H250     1.0000 0.33780  0.48670  0.60880  Biso   1.000  H
  H251     1.0000 0.83780  0.01330  0.10880  Biso   1.000  H
  H252     1.0000 0.66220  0.51330  0.39120  Biso   1.000  H
  H253     1.0000 0.17610  0.03240  0.93740  Biso   1.000  H
  H254     1.0000 0.32390  0.53240  0.56260  Biso   1.000  H
  H255     1.0000 0.82390  0.96760  0.06260  Biso   1.000  H
  H256     1.0000 0.67610  0.46760  0.43740  Biso   1.000  H
  O133     1.0000 0.73400  0.10950  0.36870  Biso   1.000  O
  O134     1.0000 0.76600  0.60950  0.13130  Biso   1.000  O
  O135     1.0000 0.26600  0.89050  0.63130  Biso   1.000  O
  O136     1.0000 0.23400  0.39050  0.86870  Biso   1.000  O
  Cl17     1.0000 0.82150  0.04180  0.84340  Biso   1.000  Cl
  Cl18     1.0000 0.67850  0.54180  0.65660  Biso   1.000  Cl
  Cl19     1.0000 0.17850  0.95820  0.15660  Biso   1.000  Cl
  Cl20     1.0000 0.32150  0.45820  0.34340  Biso   1.000  Cl
  Cl21     1.0000 0.76890  0.05870  0.87250  Biso   1.000  Cl
  Cl22     1.0000 0.73110  0.55870  0.62750  Biso   1.000  Cl
  Cl23     1.0000 0.23110  0.94130  0.12750  Biso   1.000  Cl
  Cl24     1.0000 0.26890  0.44130  0.37250  Biso   1.000  Cl
  Cl25     1.0000 0.55970  0.10500  0.81940  Biso   1.000  Cl
  Cl26     1.0000 0.94030  0.60500  0.68060  Biso   1.000  Cl
  Cl27     1.0000 0.44030  0.89500  0.18060  Biso   1.000  Cl
  Cl28     1.0000 0.05970  0.39500  0.31940  Biso   1.000  Cl
  H257     1.0000 0.63810  0.02880  0.80000  Biso   1.000  H
  H258     1.0000 0.86190  0.52880  0.70000  Biso   1.000  H
  H259     1.0000 0.36190  0.97120  0.20000  Biso   1.000  H
  H260     1.0000 0.13810  0.47120  0.30000  Biso   1.000  H
  H261     1.0000 0.64050  0.03240  0.85850  Biso   1.000  H
  H262     1.0000 0.85950  0.53240  0.64150  Biso   1.000  H
  H263     1.0000 0.35950  0.96760  0.14150  Biso   1.000  H
  H264     1.0000 0.14050  0.46760  0.35850  Biso   1.000  H
