data_image0
_cell_length_a       18.3555
_cell_length_b       18.3555
_cell_length_c       52.4245
_cell_angle_alpha    90
_cell_angle_beta     90
_cell_angle_gamma    120

_symmetry_space_group_name_H-M    "P 1"
_symmetry_int_tables_number       1

loop_
  _symmetry_equiv_pos_as_xyz
  'x, y, z'

loop_
  _atom_site_label
  _atom_site_occupancy
  _atom_site_fract_x
  _atom_site_fract_y
  _atom_site_fract_z
  _atom_site_thermal_displace_type
  _atom_site_B_iso_or_equiv
  _atom_site_type_symbol
  Cu1      1.0000 0.85820  0.14180  0.14620  Biso   1.000  Cu
  Cu2      1.0000 0.85820  0.71640  0.14620  Biso   1.000  Cu
  Cu3      1.0000 0.28360  0.14180  0.14620  Biso   1.000  Cu
  Cu4      1.0000 0.14180  0.85820  0.85380  Biso   1.000  Cu
  Cu5      1.0000 0.71640  0.85820  0.85380  Biso   1.000  Cu
  Cu6      1.0000 0.14180  0.28360  0.85380  Biso   1.000  Cu
  Cu7      1.0000 0.52487  0.47513  0.47953  Biso   1.000  Cu
  Cu8      1.0000 0.52487  0.04973  0.47953  Biso   1.000  Cu
  Cu9      1.0000 0.95027  0.47513  0.47953  Biso   1.000  Cu
  Cu10     1.0000 0.80847  0.19153  0.18713  Biso   1.000  Cu
  Cu11     1.0000 0.38307  0.19153  0.18713  Biso   1.000  Cu
  Cu12     1.0000 0.80847  0.61693  0.18713  Biso   1.000  Cu
  Cu13     1.0000 0.19153  0.80847  0.81287  Biso   1.000  Cu
  Cu14     1.0000 0.19153  0.38307  0.81287  Biso   1.000  Cu
  Cu15     1.0000 0.61693  0.80847  0.81287  Biso   1.000  Cu
  Cu16     1.0000 0.47513  0.52487  0.52047  Biso   1.000  Cu
  Cu17     1.0000 0.04973  0.52487  0.52047  Biso   1.000  Cu
  Cu18     1.0000 0.47513  0.95027  0.52047  Biso   1.000  Cu
  O1       1.0000 0.74680  0.10690  0.13316  Biso   1.000  O
  O2       1.0000 0.89310  0.63990  0.13316  Biso   1.000  O
  O3       1.0000 0.36010  0.25320  0.13316  Biso   1.000  O
  O4       1.0000 0.10690  0.74680  0.86684  Biso   1.000  O
  O5       1.0000 0.63990  0.89310  0.86684  Biso   1.000  O
  O6       1.0000 0.25320  0.36010  0.86684  Biso   1.000  O
  O7       1.0000 0.41347  0.44023  0.46649  Biso   1.000  O
  O8       1.0000 0.55977  0.97323  0.46649  Biso   1.000  O
  O9       1.0000 0.02677  0.58653  0.46649  Biso   1.000  O
  O10      1.0000 0.77357  0.08013  0.20017  Biso   1.000  O
  O11      1.0000 0.30657  0.22643  0.20017  Biso   1.000  O
  O12      1.0000 0.91987  0.69343  0.20017  Biso   1.000  O
  O13      1.0000 0.08013  0.77357  0.79983  Biso   1.000  O
  O14      1.0000 0.22643  0.30657  0.79983  Biso   1.000  O
  O15      1.0000 0.69343  0.91987  0.79983  Biso   1.000  O
  O16      1.0000 0.44023  0.41347  0.53351  Biso   1.000  O
  O17      1.0000 0.97323  0.55977  0.53351  Biso   1.000  O
  O18      1.0000 0.58653  0.02677  0.53351  Biso   1.000  O
  O19      1.0000 0.25320  0.89310  0.86684  Biso   1.000  O
  O20      1.0000 0.10690  0.36010  0.86684  Biso   1.000  O
  O21      1.0000 0.63990  0.74680  0.86684  Biso   1.000  O
  O22      1.0000 0.89310  0.25320  0.13316  Biso   1.000  O
  O23      1.0000 0.36010  0.10690  0.13316  Biso   1.000  O
  O24      1.0000 0.74680  0.63990  0.13316  Biso   1.000  O
  O25      1.0000 0.91987  0.22643  0.20017  Biso   1.000  O
  O26      1.0000 0.77357  0.69343  0.20017  Biso   1.000  O
  O27      1.0000 0.30657  0.08013  0.20017  Biso   1.000  O
  O28      1.0000 0.55977  0.58653  0.46649  Biso   1.000  O
  O29      1.0000 0.02677  0.44023  0.46649  Biso   1.000  O
  O30      1.0000 0.41347  0.97323  0.46649  Biso   1.000  O
  O31      1.0000 0.58653  0.55977  0.53351  Biso   1.000  O
  O32      1.0000 0.44023  0.02677  0.53351  Biso   1.000  O
  O33      1.0000 0.97323  0.41347  0.53351  Biso   1.000  O
  O34      1.0000 0.22643  0.91987  0.79983  Biso   1.000  O
  O35      1.0000 0.69343  0.77357  0.79983  Biso   1.000  O
  O36      1.0000 0.08013  0.30657  0.79983  Biso   1.000  O
  O37      1.0000 0.70440  0.14720  0.16784  Biso   1.000  O
  O38      1.0000 0.85280  0.55720  0.16784  Biso   1.000  O
  O39      1.0000 0.44280  0.29560  0.16784  Biso   1.000  O
  O40      1.0000 0.14720  0.70440  0.83216  Biso   1.000  O
  O41      1.0000 0.55720  0.85280  0.83216  Biso   1.000  O
  O42      1.0000 0.29560  0.44280  0.83216  Biso   1.000  O
  O43      1.0000 0.37107  0.48053  0.50117  Biso   1.000  O
  O44      1.0000 0.51947  0.89053  0.50117  Biso   1.000  O
  O45      1.0000 0.10947  0.62893  0.50117  Biso   1.000  O
  O46      1.0000 0.81387  0.03773  0.16549  Biso   1.000  O
  O47      1.0000 0.22387  0.18613  0.16549  Biso   1.000  O
  O48      1.0000 0.96227  0.77613  0.16549  Biso   1.000  O
  O49      1.0000 0.03773  0.81387  0.83451  Biso   1.000  O
  O50      1.0000 0.18613  0.22387  0.83451  Biso   1.000  O
  O51      1.0000 0.77613  0.96227  0.83451  Biso   1.000  O
  O52      1.0000 0.48053  0.37107  0.49883  Biso   1.000  O
  O53      1.0000 0.89053  0.51947  0.49883  Biso   1.000  O
  O54      1.0000 0.62893  0.10947  0.49883  Biso   1.000  O
  O55      1.0000 0.29560  0.85280  0.83216  Biso   1.000  O
  O56      1.0000 0.14720  0.44280  0.83216  Biso   1.000  O
  O57      1.0000 0.55720  0.70440  0.83216  Biso   1.000  O
  O58      1.0000 0.85280  0.29560  0.16784  Biso   1.000  O
  O59      1.0000 0.44280  0.14720  0.16784  Biso   1.000  O
  O60      1.0000 0.70440  0.55720  0.16784  Biso   1.000  O
  O61      1.0000 0.96227  0.18613  0.16549  Biso   1.000  O
  O62      1.0000 0.81387  0.77613  0.16549  Biso   1.000  O
  O63      1.0000 0.22387  0.03773  0.16549  Biso   1.000  O
  O64      1.0000 0.51947  0.62893  0.50117  Biso   1.000  O
  O65      1.0000 0.10947  0.48053  0.50117  Biso   1.000  O
  O66      1.0000 0.37107  0.89053  0.50117  Biso   1.000  O
  O67      1.0000 0.62893  0.51947  0.49883  Biso   1.000  O
  O68      1.0000 0.48053  0.10947  0.49883  Biso   1.000  O
  O69      1.0000 0.89053  0.37107  0.49883  Biso   1.000  O
  O70      1.0000 0.18613  0.96227  0.83451  Biso   1.000  O
  O71      1.0000 0.77613  0.81387  0.83451  Biso   1.000  O
  O72      1.0000 0.03773  0.22387  0.83451  Biso   1.000  O
  O73      1.0000 0.89600  0.10400  0.11213  Biso   1.000  O
  O74      1.0000 0.89600  0.79200  0.11213  Biso   1.000  O
  O75      1.0000 0.20800  0.10400  0.11213  Biso   1.000  O
  O76      1.0000 0.10400  0.89600  0.88787  Biso   1.000  O
  O77      1.0000 0.79200  0.89600  0.88787  Biso   1.000  O
  O78      1.0000 0.10400  0.20800  0.88787  Biso   1.000  O
  O79      1.0000 0.56267  0.43733  0.44546  Biso   1.000  O
  O80      1.0000 0.56267  0.12533  0.44546  Biso   1.000  O
  O81      1.0000 0.87467  0.43733  0.44546  Biso   1.000  O
  O82      1.0000 0.77067  0.22933  0.22120  Biso   1.000  O
  O83      1.0000 0.45867  0.22933  0.22120  Biso   1.000  O
  O84      1.0000 0.77067  0.54133  0.22120  Biso   1.000  O
  O85      1.0000 0.22933  0.77067  0.77880  Biso   1.000  O
  O86      1.0000 0.22933  0.45867  0.77880  Biso   1.000  O
  O87      1.0000 0.54133  0.77067  0.77880  Biso   1.000  O
  O88      1.0000 0.43733  0.56267  0.55454  Biso   1.000  O
  O89      1.0000 0.12533  0.56267  0.55454  Biso   1.000  O
  O90      1.0000 0.43733  0.87467  0.55454  Biso   1.000  O
  C1       1.0000 0.69270  0.11660  0.14551  Biso   1.000  C
  C2       1.0000 0.88340  0.57610  0.14551  Biso   1.000  C
  C3       1.0000 0.42390  0.30730  0.14551  Biso   1.000  C
  C4       1.0000 0.11660  0.69270  0.85449  Biso   1.000  C
  C5       1.0000 0.57610  0.88340  0.85449  Biso   1.000  C
  C6       1.0000 0.30730  0.42390  0.85449  Biso   1.000  C
  C7       1.0000 0.35937  0.44993  0.47884  Biso   1.000  C
  C8       1.0000 0.55007  0.90943  0.47884  Biso   1.000  C
  C9       1.0000 0.09057  0.64063  0.47884  Biso   1.000  C
  C10      1.0000 0.78327  0.02603  0.18782  Biso   1.000  C
  C11      1.0000 0.24277  0.21673  0.18782  Biso   1.000  C
  C12      1.0000 0.97397  0.75723  0.18782  Biso   1.000  C
  C13      1.0000 0.02603  0.78327  0.81218  Biso   1.000  C
  C14      1.0000 0.21673  0.24277  0.81218  Biso   1.000  C
  C15      1.0000 0.75723  0.97397  0.81218  Biso   1.000  C
  C16      1.0000 0.44993  0.35937  0.52116  Biso   1.000  C
  C17      1.0000 0.90943  0.55007  0.52116  Biso   1.000  C
  C18      1.0000 0.64063  0.09057  0.52116  Biso   1.000  C
  C19      1.0000 0.30730  0.88340  0.85449  Biso   1.000  C
  C20      1.0000 0.11660  0.42390  0.85449  Biso   1.000  C
  C21      1.0000 0.57610  0.69270  0.85449  Biso   1.000  C
  C22      1.0000 0.88340  0.30730  0.14551  Biso   1.000  C
  C23      1.0000 0.42390  0.11660  0.14551  Biso   1.000  C
  C24      1.0000 0.69270  0.57610  0.14551  Biso   1.000  C
  C25      1.0000 0.97397  0.21673  0.18782  Biso   1.000  C
  C26      1.0000 0.78327  0.75723  0.18782  Biso   1.000  C
  C27      1.0000 0.24277  0.02603  0.18782  Biso   1.000  C
  C28      1.0000 0.55007  0.64063  0.47884  Biso   1.000  C
  C29      1.0000 0.09057  0.44993  0.47884  Biso   1.000  C
  C30      1.0000 0.35937  0.90943  0.47884  Biso   1.000  C
  C31      1.0000 0.64063  0.55007  0.52116  Biso   1.000  C
  C32      1.0000 0.44993  0.09057  0.52116  Biso   1.000  C
  C33      1.0000 0.90943  0.35937  0.52116  Biso   1.000  C
  C34      1.0000 0.21673  0.97397  0.81218  Biso   1.000  C
  C35      1.0000 0.75723  0.78327  0.81218  Biso   1.000  C
  C36      1.0000 0.02603  0.24277  0.81218  Biso   1.000  C
  C37      1.0000 0.53020  0.06020  0.09426  Biso   1.000  C
  C38      1.0000 0.93980  0.47000  0.09426  Biso   1.000  C
  C39      1.0000 0.53000  0.46980  0.09426  Biso   1.000  C
  C40      1.0000 0.06020  0.53020  0.90574  Biso   1.000  C
  C41      1.0000 0.47000  0.93980  0.90574  Biso   1.000  C
  C42      1.0000 0.46980  0.53000  0.90574  Biso   1.000  C
  C43      1.0000 0.19687  0.39353  0.42759  Biso   1.000  C
  C44      1.0000 0.60647  0.80333  0.42759  Biso   1.000  C
  C45      1.0000 0.19667  0.80313  0.42759  Biso   1.000  C
  C46      1.0000 0.72687  0.86353  0.23907  Biso   1.000  C
  C47      1.0000 0.13667  0.27313  0.23907  Biso   1.000  C
  C48      1.0000 0.13647  0.86333  0.23907  Biso   1.000  C
  C49      1.0000 0.86353  0.72687  0.76093  Biso   1.000  C
  C50      1.0000 0.27313  0.13667  0.76093  Biso   1.000  C
  C51      1.0000 0.86333  0.13647  0.76093  Biso   1.000  C
  C52      1.0000 0.39353  0.19687  0.57241  Biso   1.000  C
  C53      1.0000 0.80333  0.60647  0.57241  Biso   1.000  C
  C54      1.0000 0.80313  0.19667  0.57241  Biso   1.000  C
  C55      1.0000 0.55490  0.10980  0.14529  Biso   1.000  C
  C56      1.0000 0.89020  0.44510  0.14529  Biso   1.000  C
  C57      1.0000 0.55490  0.44510  0.14529  Biso   1.000  C
  C58      1.0000 0.10980  0.55490  0.85471  Biso   1.000  C
  C59      1.0000 0.44510  0.89020  0.85471  Biso   1.000  C
  C60      1.0000 0.44510  0.55490  0.85471  Biso   1.000  C
  C61      1.0000 0.22157  0.44313  0.47862  Biso   1.000  C
  C62      1.0000 0.55687  0.77843  0.47862  Biso   1.000  C
  C63      1.0000 0.22157  0.77843  0.47862  Biso   1.000  C
  C64      1.0000 0.77647  0.88823  0.18804  Biso   1.000  C
  C65      1.0000 0.11177  0.22353  0.18804  Biso   1.000  C
  C66      1.0000 0.11177  0.88823  0.18804  Biso   1.000  C
  C67      1.0000 0.88823  0.77647  0.81196  Biso   1.000  C
  C68      1.0000 0.22353  0.11177  0.81196  Biso   1.000  C
  C69      1.0000 0.88823  0.11177  0.81196  Biso   1.000  C
  C70      1.0000 0.44313  0.22157  0.52138  Biso   1.000  C
  C71      1.0000 0.77843  0.55687  0.52138  Biso   1.000  C
  C72      1.0000 0.77843  0.22157  0.52138  Biso   1.000  C
  H1       1.0000 0.56400  0.12790  0.16250  Biso   1.000  H
  H2       1.0000 0.87210  0.43610  0.16250  Biso   1.000  H
  H3       1.0000 0.56390  0.43600  0.16250  Biso   1.000  H
  H4       1.0000 0.12790  0.56400  0.83750  Biso   1.000  H
  H5       1.0000 0.43610  0.87210  0.83750  Biso   1.000  H
  H6       1.0000 0.43600  0.56390  0.83750  Biso   1.000  H
  H7       1.0000 0.23067  0.46123  0.49583  Biso   1.000  H
  H8       1.0000 0.53877  0.76943  0.49583  Biso   1.000  H
  H9       1.0000 0.23057  0.76933  0.49583  Biso   1.000  H
  H10      1.0000 0.79457  0.89733  0.17083  Biso   1.000  H
  H11      1.0000 0.10277  0.20543  0.17083  Biso   1.000  H
  H12      1.0000 0.10267  0.89723  0.17083  Biso   1.000  H
  H13      1.0000 0.89733  0.79457  0.82917  Biso   1.000  H
  H14      1.0000 0.20543  0.10277  0.82917  Biso   1.000  H
  H15      1.0000 0.89723  0.10267  0.82917  Biso   1.000  H
  H16      1.0000 0.46123  0.23067  0.50417  Biso   1.000  H
  H17      1.0000 0.76943  0.53877  0.50417  Biso   1.000  H
  H18      1.0000 0.76933  0.23057  0.50417  Biso   1.000  H
  C73      1.0000 0.60110  0.07200  0.10722  Biso   1.000  C
  C74      1.0000 0.92800  0.52910  0.10722  Biso   1.000  C
  C75      1.0000 0.47090  0.39890  0.10722  Biso   1.000  C
  C76      1.0000 0.07200  0.60110  0.89278  Biso   1.000  C
  C77      1.0000 0.52910  0.92800  0.89278  Biso   1.000  C
  C78      1.0000 0.39890  0.47090  0.89278  Biso   1.000  C
  C79      1.0000 0.26777  0.40533  0.44055  Biso   1.000  C
  C80      1.0000 0.59467  0.86243  0.44055  Biso   1.000  C
  C81      1.0000 0.13757  0.73223  0.44055  Biso   1.000  C
  C82      1.0000 0.73867  0.93443  0.22611  Biso   1.000  C
  C83      1.0000 0.19577  0.26133  0.22611  Biso   1.000  C
  C84      1.0000 0.06557  0.80423  0.22611  Biso   1.000  C
  C85      1.0000 0.93443  0.73867  0.77389  Biso   1.000  C
  C86      1.0000 0.26133  0.19577  0.77389  Biso   1.000  C
  C87      1.0000 0.80423  0.06557  0.77389  Biso   1.000  C
  C88      1.0000 0.40533  0.26777  0.55945  Biso   1.000  C
  C89      1.0000 0.86243  0.59467  0.55945  Biso   1.000  C
  C90      1.0000 0.73223  0.13757  0.55945  Biso   1.000  C
  C91      1.0000 0.39890  0.92800  0.89278  Biso   1.000  C
  C92      1.0000 0.07200  0.47090  0.89278  Biso   1.000  C
  C93      1.0000 0.52910  0.60110  0.89278  Biso   1.000  C
  C94      1.0000 0.92800  0.39890  0.10722  Biso   1.000  C
  C95      1.0000 0.47090  0.07200  0.10722  Biso   1.000  C
  C96      1.0000 0.60110  0.52910  0.10722  Biso   1.000  C
  C97      1.0000 0.06557  0.26133  0.22611  Biso   1.000  C
  C98      1.0000 0.73867  0.80423  0.22611  Biso   1.000  C
  C99      1.0000 0.19577  0.93443  0.22611  Biso   1.000  C
  C100     1.0000 0.59467  0.73223  0.44055  Biso   1.000  C
  C101     1.0000 0.13757  0.40533  0.44055  Biso   1.000  C
  C102     1.0000 0.26777  0.86243  0.44055  Biso   1.000  C
  C103     1.0000 0.73223  0.59467  0.55945  Biso   1.000  C
  C104     1.0000 0.40533  0.13757  0.55945  Biso   1.000  C
  C105     1.0000 0.86243  0.26777  0.55945  Biso   1.000  C
  C106     1.0000 0.26133  0.06557  0.77389  Biso   1.000  C
  C107     1.0000 0.80423  0.73867  0.77389  Biso   1.000  C
  C108     1.0000 0.93443  0.19577  0.77389  Biso   1.000  C
  H19      1.0000 0.64170  0.06330  0.09860  Biso   1.000  H
  H20      1.0000 0.93670  0.57840  0.09860  Biso   1.000  H
  H21      1.0000 0.42160  0.35830  0.09860  Biso   1.000  H
  H22      1.0000 0.06330  0.64170  0.90140  Biso   1.000  H
  H23      1.0000 0.57840  0.93670  0.90140  Biso   1.000  H
  H24      1.0000 0.35830  0.42160  0.90140  Biso   1.000  H
  H25      1.0000 0.30837  0.39663  0.43193  Biso   1.000  H
  H26      1.0000 0.60337  0.91173  0.43193  Biso   1.000  H
  H27      1.0000 0.08827  0.69163  0.43193  Biso   1.000  H
  H28      1.0000 0.72997  0.97503  0.23473  Biso   1.000  H
  H29      1.0000 0.24507  0.27003  0.23473  Biso   1.000  H
  H30      1.0000 0.02497  0.75493  0.23473  Biso   1.000  H
  H31      1.0000 0.97503  0.72997  0.76527  Biso   1.000  H
  H32      1.0000 0.27003  0.24507  0.76527  Biso   1.000  H
  H33      1.0000 0.75493  0.02497  0.76527  Biso   1.000  H
  H34      1.0000 0.39663  0.30837  0.56807  Biso   1.000  H
  H35      1.0000 0.91173  0.60337  0.56807  Biso   1.000  H
  H36      1.0000 0.69163  0.08827  0.56807  Biso   1.000  H
  H37      1.0000 0.35830  0.93670  0.90140  Biso   1.000  H
  H38      1.0000 0.06330  0.42160  0.90140  Biso   1.000  H
  H39      1.0000 0.57840  0.64170  0.90140  Biso   1.000  H
  H40      1.0000 0.93670  0.35830  0.09860  Biso   1.000  H
  H41      1.0000 0.42160  0.06330  0.09860  Biso   1.000  H
  H42      1.0000 0.64170  0.57840  0.09860  Biso   1.000  H
  H43      1.0000 0.02497  0.27003  0.23473  Biso   1.000  H
  H44      1.0000 0.72997  0.75493  0.23473  Biso   1.000  H
  H45      1.0000 0.24507  0.97503  0.23473  Biso   1.000  H
  H46      1.0000 0.60337  0.69163  0.43193  Biso   1.000  H
  H47      1.0000 0.08827  0.39663  0.43193  Biso   1.000  H
  H48      1.0000 0.30837  0.91173  0.43193  Biso   1.000  H
  H49      1.0000 0.69163  0.60337  0.56807  Biso   1.000  H
  H50      1.0000 0.39663  0.08827  0.56807  Biso   1.000  H
  H51      1.0000 0.91173  0.30837  0.56807  Biso   1.000  H
  H52      1.0000 0.27003  0.02497  0.76527  Biso   1.000  H
  H53      1.0000 0.75493  0.72997  0.76527  Biso   1.000  H
  H54      1.0000 0.97503  0.24507  0.76527  Biso   1.000  H
  C109     1.0000 0.61370  0.09640  0.13269  Biso   1.000  C
  C110     1.0000 0.90360  0.51730  0.13269  Biso   1.000  C
  C111     1.0000 0.48270  0.38630  0.13269  Biso   1.000  C
  C112     1.0000 0.09640  0.61370  0.86731  Biso   1.000  C
  C113     1.0000 0.51730  0.90360  0.86731  Biso   1.000  C
  C114     1.0000 0.38630  0.48270  0.86731  Biso   1.000  C
  C115     1.0000 0.28037  0.42973  0.46602  Biso   1.000  C
  C116     1.0000 0.57027  0.85063  0.46602  Biso   1.000  C
  C117     1.0000 0.14937  0.71963  0.46602  Biso   1.000  C
  C118     1.0000 0.76307  0.94703  0.20064  Biso   1.000  C
  C119     1.0000 0.18397  0.23693  0.20064  Biso   1.000  C
  C120     1.0000 0.05297  0.81603  0.20064  Biso   1.000  C
  C121     1.0000 0.94703  0.76307  0.79936  Biso   1.000  C
  C122     1.0000 0.23693  0.18397  0.79936  Biso   1.000  C
  C123     1.0000 0.81603  0.05297  0.79936  Biso   1.000  C
  C124     1.0000 0.42973  0.28037  0.53398  Biso   1.000  C
  C125     1.0000 0.85063  0.57027  0.53398  Biso   1.000  C
  C126     1.0000 0.71963  0.14937  0.53398  Biso   1.000  C
  C127     1.0000 0.38630  0.90360  0.86731  Biso   1.000  C
  C128     1.0000 0.09640  0.48270  0.86731  Biso   1.000  C
  C129     1.0000 0.51730  0.61370  0.86731  Biso   1.000  C
  C130     1.0000 0.90360  0.38630  0.13269  Biso   1.000  C
  C131     1.0000 0.48270  0.09640  0.13269  Biso   1.000  C
  C132     1.0000 0.61370  0.51730  0.13269  Biso   1.000  C
  C133     1.0000 0.05297  0.23693  0.20064  Biso   1.000  C
  C134     1.0000 0.76307  0.81603  0.20064  Biso   1.000  C
  C135     1.0000 0.18397  0.94703  0.20064  Biso   1.000  C
  C136     1.0000 0.57027  0.71963  0.46602  Biso   1.000  C
  C137     1.0000 0.14937  0.42973  0.46602  Biso   1.000  C
  C138     1.0000 0.28037  0.85063  0.46602  Biso   1.000  C
  C139     1.0000 0.71963  0.57027  0.53398  Biso   1.000  C
  C140     1.0000 0.42973  0.14937  0.53398  Biso   1.000  C
  C141     1.0000 0.85063  0.28037  0.53398  Biso   1.000  C
  C142     1.0000 0.23693  0.05297  0.79936  Biso   1.000  C
  C143     1.0000 0.81603  0.76307  0.79936  Biso   1.000  C
  C144     1.0000 0.94703  0.18397  0.79936  Biso   1.000  C
  C145     1.0000 0.43980  0.96010  0.05771  Biso   1.000  C
  C146     1.0000 0.03990  0.47970  0.05771  Biso   1.000  C
  C147     1.0000 0.52030  0.56020  0.05771  Biso   1.000  C
  C148     1.0000 0.96010  0.43980  0.94229  Biso   1.000  C
  C149     1.0000 0.47970  0.03990  0.94229  Biso   1.000  C
  C150     1.0000 0.56020  0.52030  0.94229  Biso   1.000  C
  C151     1.0000 0.10647  0.29343  0.39104  Biso   1.000  C
  C152     1.0000 0.70657  0.81303  0.39104  Biso   1.000  C
  C153     1.0000 0.18697  0.89353  0.39104  Biso   1.000  C
  C154     1.0000 0.62677  0.77313  0.27562  Biso   1.000  C
  C155     1.0000 0.14637  0.37323  0.27562  Biso   1.000  C
  C156     1.0000 0.22687  0.85363  0.27562  Biso   1.000  C
  C157     1.0000 0.77313  0.62677  0.72438  Biso   1.000  C
  C158     1.0000 0.37323  0.14637  0.72438  Biso   1.000  C
  C159     1.0000 0.85363  0.22687  0.72438  Biso   1.000  C
  C160     1.0000 0.29343  0.10647  0.60896  Biso   1.000  C
  C161     1.0000 0.81303  0.70657  0.60896  Biso   1.000  C
  C162     1.0000 0.89353  0.18697  0.60896  Biso   1.000  C
  C163     1.0000 0.56020  0.03990  0.94229  Biso   1.000  C
  C164     1.0000 0.96010  0.52030  0.94229  Biso   1.000  C
  C165     1.0000 0.47970  0.43980  0.94229  Biso   1.000  C
  C166     1.0000 0.03990  0.56020  0.05771  Biso   1.000  C
  C167     1.0000 0.52030  0.96010  0.05771  Biso   1.000  C
  C168     1.0000 0.43980  0.47970  0.05771  Biso   1.000  C
  C169     1.0000 0.22687  0.37323  0.27562  Biso   1.000  C
  C170     1.0000 0.62677  0.85363  0.27562  Biso   1.000  C
  C171     1.0000 0.14637  0.77313  0.27562  Biso   1.000  C
  C172     1.0000 0.70657  0.89353  0.39104  Biso   1.000  C
  C173     1.0000 0.18697  0.29343  0.39104  Biso   1.000  C
  C174     1.0000 0.10647  0.81303  0.39104  Biso   1.000  C
  C175     1.0000 0.89353  0.70657  0.60896  Biso   1.000  C
  C176     1.0000 0.29343  0.18697  0.60896  Biso   1.000  C
  C177     1.0000 0.81303  0.10647  0.60896  Biso   1.000  C
  C178     1.0000 0.37323  0.22687  0.72438  Biso   1.000  C
  C179     1.0000 0.85363  0.62677  0.72438  Biso   1.000  C
  C180     1.0000 0.77313  0.14637  0.72438  Biso   1.000  C
  H55      1.0000 0.39210  0.93420  0.06890  Biso   1.000  H
  H56      1.0000 0.06580  0.45790  0.06890  Biso   1.000  H
  H57      1.0000 0.54210  0.60790  0.06890  Biso   1.000  H
  H58      1.0000 0.93420  0.39210  0.93110  Biso   1.000  H
  H59      1.0000 0.45790  0.06580  0.93110  Biso   1.000  H
  H60      1.0000 0.60790  0.54210  0.93110  Biso   1.000  H
  H61      1.0000 0.05877  0.26753  0.40223  Biso   1.000  H
  H62      1.0000 0.73247  0.79123  0.40223  Biso   1.000  H
  H63      1.0000 0.20877  0.94123  0.40223  Biso   1.000  H
  H64      1.0000 0.60087  0.72543  0.26443  Biso   1.000  H
  H65      1.0000 0.12457  0.39913  0.26443  Biso   1.000  H
  H66      1.0000 0.27457  0.87543  0.26443  Biso   1.000  H
  H67      1.0000 0.72543  0.60087  0.73557  Biso   1.000  H
  H68      1.0000 0.39913  0.12457  0.73557  Biso   1.000  H
  H69      1.0000 0.87543  0.27457  0.73557  Biso   1.000  H
  H70      1.0000 0.26753  0.05877  0.59777  Biso   1.000  H
  H71      1.0000 0.79123  0.73247  0.59777  Biso   1.000  H
  H72      1.0000 0.94123  0.20877  0.59777  Biso   1.000  H
  H73      1.0000 0.60790  0.06580  0.93110  Biso   1.000  H
  H74      1.0000 0.93420  0.54210  0.93110  Biso   1.000  H
  H75      1.0000 0.45790  0.39210  0.93110  Biso   1.000  H
  H76      1.0000 0.06580  0.60790  0.06890  Biso   1.000  H
  H77      1.0000 0.54210  0.93420  0.06890  Biso   1.000  H
  H78      1.0000 0.39210  0.45790  0.06890  Biso   1.000  H
  H79      1.0000 0.27457  0.39913  0.26443  Biso   1.000  H
  H80      1.0000 0.60087  0.87543  0.26443  Biso   1.000  H
  H81      1.0000 0.12457  0.72543  0.26443  Biso   1.000  H
  H82      1.0000 0.73247  0.94123  0.40223  Biso   1.000  H
  H83      1.0000 0.20877  0.26753  0.40223  Biso   1.000  H
  H84      1.0000 0.05877  0.79123  0.40223  Biso   1.000  H
  H85      1.0000 0.94123  0.73247  0.59777  Biso   1.000  H
  H86      1.0000 0.26753  0.20877  0.59777  Biso   1.000  H
  H87      1.0000 0.79123  0.05877  0.59777  Biso   1.000  H
  H88      1.0000 0.39913  0.27457  0.73557  Biso   1.000  H
  H89      1.0000 0.87543  0.60087  0.73557  Biso   1.000  H
  H90      1.0000 0.72543  0.12457  0.73557  Biso   1.000  H
  C181     1.0000 0.51950  0.01320  0.06756  Biso   1.000  C
  C182     1.0000 0.98680  0.50630  0.06756  Biso   1.000  C
  C183     1.0000 0.49370  0.48050  0.06756  Biso   1.000  C
  C184     1.0000 0.01320  0.51950  0.93244  Biso   1.000  C
  C185     1.0000 0.50630  0.98680  0.93244  Biso   1.000  C
  C186     1.0000 0.48050  0.49370  0.93244  Biso   1.000  C
  C187     1.0000 0.18617  0.34653  0.40089  Biso   1.000  C
  C188     1.0000 0.65347  0.83963  0.40089  Biso   1.000  C
  C189     1.0000 0.16037  0.81383  0.40089  Biso   1.000  C
  C190     1.0000 0.67987  0.85283  0.26577  Biso   1.000  C
  C191     1.0000 0.17297  0.32013  0.26577  Biso   1.000  C
  C192     1.0000 0.14717  0.82703  0.26577  Biso   1.000  C
  C193     1.0000 0.85283  0.67987  0.73423  Biso   1.000  C
  C194     1.0000 0.32013  0.17297  0.73423  Biso   1.000  C
  C195     1.0000 0.82703  0.14717  0.73423  Biso   1.000  C
  C196     1.0000 0.34653  0.18617  0.59911  Biso   1.000  C
  C197     1.0000 0.83963  0.65347  0.59911  Biso   1.000  C
  C198     1.0000 0.81383  0.16037  0.59911  Biso   1.000  C
  C199     1.0000 0.48050  0.98680  0.93244  Biso   1.000  C
  C200     1.0000 0.01320  0.49370  0.93244  Biso   1.000  C
  C201     1.0000 0.50630  0.51950  0.93244  Biso   1.000  C
  C202     1.0000 0.98680  0.48050  0.06756  Biso   1.000  C
  C203     1.0000 0.49370  0.01320  0.06756  Biso   1.000  C
  C204     1.0000 0.51950  0.50630  0.06756  Biso   1.000  C
  C205     1.0000 0.14717  0.32013  0.26577  Biso   1.000  C
  C206     1.0000 0.67987  0.82703  0.26577  Biso   1.000  C
  C207     1.0000 0.17297  0.85283  0.26577  Biso   1.000  C
  C208     1.0000 0.65347  0.81383  0.40089  Biso   1.000  C
  C209     1.0000 0.16037  0.34653  0.40089  Biso   1.000  C
  C210     1.0000 0.18617  0.83963  0.40089  Biso   1.000  C
  C211     1.0000 0.81383  0.65347  0.59911  Biso   1.000  C
  C212     1.0000 0.34653  0.16037  0.59911  Biso   1.000  C
  C213     1.0000 0.83963  0.18617  0.59911  Biso   1.000  C
  C214     1.0000 0.32013  0.14717  0.73423  Biso   1.000  C
  C215     1.0000 0.82703  0.67987  0.73423  Biso   1.000  C
  C216     1.0000 0.85283  0.17297  0.73423  Biso   1.000  C
  C217     1.0000 0.58860  0.05060  0.05133  Biso   1.000  C
  C218     1.0000 0.94940  0.53800  0.05133  Biso   1.000  C
  C219     1.0000 0.46200  0.41140  0.05133  Biso   1.000  C
  C220     1.0000 0.05060  0.58860  0.94867  Biso   1.000  C
  C221     1.0000 0.53800  0.94940  0.94867  Biso   1.000  C
  C222     1.0000 0.41140  0.46200  0.94867  Biso   1.000  C
  C223     1.0000 0.25527  0.38393  0.38466  Biso   1.000  C
  C224     1.0000 0.61607  0.87133  0.38466  Biso   1.000  C
  C225     1.0000 0.12867  0.74473  0.38466  Biso   1.000  C
  C226     1.0000 0.71727  0.92193  0.28200  Biso   1.000  C
  C227     1.0000 0.20467  0.28273  0.28200  Biso   1.000  C
  C228     1.0000 0.07807  0.79533  0.28200  Biso   1.000  C
  C229     1.0000 0.92193  0.71727  0.71800  Biso   1.000  C
  C230     1.0000 0.28273  0.20467  0.71800  Biso   1.000  C
  C231     1.0000 0.79533  0.07807  0.71800  Biso   1.000  C
  C232     1.0000 0.38393  0.25527  0.61534  Biso   1.000  C
  C233     1.0000 0.87133  0.61607  0.61534  Biso   1.000  C
  C234     1.0000 0.74473  0.12867  0.61534  Biso   1.000  C
  C235     1.0000 0.41140  0.94940  0.94867  Biso   1.000  C
  C236     1.0000 0.05060  0.46200  0.94867  Biso   1.000  C
  C237     1.0000 0.53800  0.58860  0.94867  Biso   1.000  C
  C238     1.0000 0.94940  0.41140  0.05133  Biso   1.000  C
  C239     1.0000 0.46200  0.05060  0.05133  Biso   1.000  C
  C240     1.0000 0.58860  0.53800  0.05133  Biso   1.000  C
  C241     1.0000 0.07807  0.28273  0.28200  Biso   1.000  C
  C242     1.0000 0.71727  0.79533  0.28200  Biso   1.000  C
  C243     1.0000 0.20467  0.92193  0.28200  Biso   1.000  C
  C244     1.0000 0.61607  0.74473  0.38466  Biso   1.000  C
  C245     1.0000 0.12867  0.38393  0.38466  Biso   1.000  C
  C246     1.0000 0.25527  0.87133  0.38466  Biso   1.000  C
  C247     1.0000 0.74473  0.61607  0.61534  Biso   1.000  C
  C248     1.0000 0.38393  0.12867  0.61534  Biso   1.000  C
  C249     1.0000 0.87133  0.25527  0.61534  Biso   1.000  C
  C250     1.0000 0.28273  0.07807  0.71800  Biso   1.000  C
  C251     1.0000 0.79533  0.71727  0.71800  Biso   1.000  C
  C252     1.0000 0.92193  0.20467  0.71800  Biso   1.000  C
  H91      1.0000 0.64370  0.08730  0.05810  Biso   1.000  H
  H92      1.0000 0.91270  0.55640  0.05810  Biso   1.000  H
  H93      1.0000 0.44360  0.35630  0.05810  Biso   1.000  H
  H94      1.0000 0.08730  0.64370  0.94190  Biso   1.000  H
  H95      1.0000 0.55640  0.91270  0.94190  Biso   1.000  H
  H96      1.0000 0.35630  0.44360  0.94190  Biso   1.000  H
  H97      1.0000 0.31037  0.42063  0.39143  Biso   1.000  H
  H98      1.0000 0.57937  0.88973  0.39143  Biso   1.000  H
  H99      1.0000 0.11027  0.68963  0.39143  Biso   1.000  H
  H100     1.0000 0.75397  0.97703  0.27523  Biso   1.000  H
  H101     1.0000 0.22307  0.24603  0.27523  Biso   1.000  H
  H102     1.0000 0.02297  0.77693  0.27523  Biso   1.000  H
  H103     1.0000 0.97703  0.75397  0.72477  Biso   1.000  H
  H104     1.0000 0.24603  0.22307  0.72477  Biso   1.000  H
  H105     1.0000 0.77693  0.02297  0.72477  Biso   1.000  H
  H106     1.0000 0.42063  0.31037  0.60857  Biso   1.000  H
  H107     1.0000 0.88973  0.57937  0.60857  Biso   1.000  H
  H108     1.0000 0.68963  0.11027  0.60857  Biso   1.000  H
  H109     1.0000 0.35630  0.91270  0.94190  Biso   1.000  H
  H110     1.0000 0.08730  0.44360  0.94190  Biso   1.000  H
  H111     1.0000 0.55640  0.64370  0.94190  Biso   1.000  H
  H112     1.0000 0.91270  0.35630  0.05810  Biso   1.000  H
  H113     1.0000 0.44360  0.08730  0.05810  Biso   1.000  H
  H114     1.0000 0.64370  0.55640  0.05810  Biso   1.000  H
  H115     1.0000 0.02297  0.24603  0.27523  Biso   1.000  H
  H116     1.0000 0.75397  0.77693  0.27523  Biso   1.000  H
  H117     1.0000 0.22307  0.97703  0.27523  Biso   1.000  H
  H118     1.0000 0.57937  0.68963  0.39143  Biso   1.000  H
  H119     1.0000 0.11027  0.42063  0.39143  Biso   1.000  H
  H120     1.0000 0.31037  0.88973  0.39143  Biso   1.000  H
  H121     1.0000 0.68963  0.57937  0.60857  Biso   1.000  H
  H122     1.0000 0.42063  0.11027  0.60857  Biso   1.000  H
  H123     1.0000 0.88973  0.31037  0.60857  Biso   1.000  H
  H124     1.0000 0.24603  0.02297  0.72477  Biso   1.000  H
  H125     1.0000 0.77693  0.75397  0.72477  Biso   1.000  H
  H126     1.0000 0.97703  0.22307  0.72477  Biso   1.000  H
  C253     1.0000 0.57790  0.03490  0.02527  Biso   1.000  C
  C254     1.0000 0.96510  0.54300  0.02527  Biso   1.000  C
  C255     1.0000 0.45700  0.42210  0.02527  Biso   1.000  C
  C256     1.0000 0.03490  0.57790  0.97473  Biso   1.000  C
  C257     1.0000 0.54300  0.96510  0.97473  Biso   1.000  C
  C258     1.0000 0.42210  0.45700  0.97473  Biso   1.000  C
  C259     1.0000 0.24457  0.36823  0.35860  Biso   1.000  C
  C260     1.0000 0.63177  0.87633  0.35860  Biso   1.000  C
  C261     1.0000 0.12367  0.75543  0.35860  Biso   1.000  C
  C262     1.0000 0.70157  0.91123  0.30806  Biso   1.000  C
  C263     1.0000 0.20967  0.29843  0.30806  Biso   1.000  C
  C264     1.0000 0.08877  0.79033  0.30806  Biso   1.000  C
  C265     1.0000 0.91123  0.70157  0.69194  Biso   1.000  C
  C266     1.0000 0.29843  0.20967  0.69194  Biso   1.000  C
  C267     1.0000 0.79033  0.08877  0.69194  Biso   1.000  C
  C268     1.0000 0.36823  0.24457  0.64140  Biso   1.000  C
  C269     1.0000 0.87633  0.63177  0.64140  Biso   1.000  C
  C270     1.0000 0.75543  0.12367  0.64140  Biso   1.000  C
  C271     1.0000 0.42210  0.96510  0.97473  Biso   1.000  C
  C272     1.0000 0.03490  0.45700  0.97473  Biso   1.000  C
  C273     1.0000 0.54300  0.57790  0.97473  Biso   1.000  C
  C274     1.0000 0.96510  0.42210  0.02527  Biso   1.000  C
  C275     1.0000 0.45700  0.03490  0.02527  Biso   1.000  C
  C276     1.0000 0.57790  0.54300  0.02527  Biso   1.000  C
  C277     1.0000 0.08877  0.29843  0.30806  Biso   1.000  C
  C278     1.0000 0.70157  0.79033  0.30806  Biso   1.000  C
  C279     1.0000 0.20967  0.91123  0.30806  Biso   1.000  C
  C280     1.0000 0.63177  0.75543  0.35860  Biso   1.000  C
  C281     1.0000 0.12367  0.36823  0.35860  Biso   1.000  C
  C282     1.0000 0.24457  0.87633  0.35860  Biso   1.000  C
  C283     1.0000 0.75543  0.63177  0.64140  Biso   1.000  C
  C284     1.0000 0.36823  0.12367  0.64140  Biso   1.000  C
  C285     1.0000 0.87633  0.24457  0.64140  Biso   1.000  C
  C286     1.0000 0.29843  0.08877  0.69194  Biso   1.000  C
  C287     1.0000 0.79033  0.70157  0.69194  Biso   1.000  C
  C288     1.0000 0.91123  0.20967  0.69194  Biso   1.000  C
  H127     1.0000 0.63430  0.06660  0.01360  Biso   1.000  H
  H128     1.0000 0.93340  0.56770  0.01360  Biso   1.000  H
  H129     1.0000 0.43230  0.36570  0.01360  Biso   1.000  H
  H130     1.0000 0.06660  0.63430  0.98640  Biso   1.000  H
  H131     1.0000 0.56770  0.93340  0.98640  Biso   1.000  H
  H132     1.0000 0.36570  0.43230  0.98640  Biso   1.000  H
  H133     1.0000 0.30097  0.39993  0.34693  Biso   1.000  H
  H134     1.0000 0.60007  0.90103  0.34693  Biso   1.000  H
  H135     1.0000 0.09897  0.69903  0.34693  Biso   1.000  H
  H136     1.0000 0.73327  0.96763  0.31973  Biso   1.000  H
  H137     1.0000 0.23437  0.26673  0.31973  Biso   1.000  H
  H138     1.0000 0.03237  0.76563  0.31973  Biso   1.000  H
  H139     1.0000 0.96763  0.73327  0.68027  Biso   1.000  H
  H140     1.0000 0.26673  0.23437  0.68027  Biso   1.000  H
  H141     1.0000 0.76563  0.03237  0.68027  Biso   1.000  H
  H142     1.0000 0.39993  0.30097  0.65307  Biso   1.000  H
  H143     1.0000 0.90103  0.60007  0.65307  Biso   1.000  H
  H144     1.0000 0.69903  0.09897  0.65307  Biso   1.000  H
  H145     1.0000 0.36570  0.93340  0.98640  Biso   1.000  H
  H146     1.0000 0.06660  0.43230  0.98640  Biso   1.000  H
  H147     1.0000 0.56770  0.63430  0.98640  Biso   1.000  H
  H148     1.0000 0.93340  0.36570  0.01360  Biso   1.000  H
  H149     1.0000 0.43230  0.06660  0.01360  Biso   1.000  H
  H150     1.0000 0.63430  0.56770  0.01360  Biso   1.000  H
  H151     1.0000 0.03237  0.26673  0.31973  Biso   1.000  H
  H152     1.0000 0.73327  0.76563  0.31973  Biso   1.000  H
  H153     1.0000 0.23437  0.96763  0.31973  Biso   1.000  H
  H154     1.0000 0.60007  0.69903  0.34693  Biso   1.000  H
  H155     1.0000 0.09897  0.39993  0.34693  Biso   1.000  H
  H156     1.0000 0.30097  0.90103  0.34693  Biso   1.000  H
  H157     1.0000 0.69903  0.60007  0.65307  Biso   1.000  H
  H158     1.0000 0.39993  0.09897  0.65307  Biso   1.000  H
  H159     1.0000 0.90103  0.30097  0.65307  Biso   1.000  H
  H160     1.0000 0.26673  0.03237  0.68027  Biso   1.000  H
  H161     1.0000 0.76563  0.73327  0.68027  Biso   1.000  H
  H162     1.0000 0.96763  0.23437  0.68027  Biso   1.000  H
  C289     1.0000 0.49820  0.98180  0.01542  Biso   1.000  C
  C290     1.0000 0.01820  0.51640  0.01542  Biso   1.000  C
  C291     1.0000 0.48360  0.50180  0.01542  Biso   1.000  C
  C292     1.0000 0.98180  0.49820  0.98458  Biso   1.000  C
  C293     1.0000 0.51640  0.01820  0.98458  Biso   1.000  C
  C294     1.0000 0.50180  0.48360  0.98458  Biso   1.000  C
  C295     1.0000 0.16487  0.31513  0.34875  Biso   1.000  C
  C296     1.0000 0.68487  0.84973  0.34875  Biso   1.000  C
  C297     1.0000 0.15027  0.83513  0.34875  Biso   1.000  C
  C298     1.0000 0.64847  0.83153  0.31791  Biso   1.000  C
  C299     1.0000 0.18307  0.35153  0.31791  Biso   1.000  C
  C300     1.0000 0.16847  0.81693  0.31791  Biso   1.000  C
  C301     1.0000 0.83153  0.64847  0.68209  Biso   1.000  C
  C302     1.0000 0.35153  0.18307  0.68209  Biso   1.000  C
  C303     1.0000 0.81693  0.16847  0.68209  Biso   1.000  C
  C304     1.0000 0.31513  0.16487  0.65125  Biso   1.000  C
  C305     1.0000 0.84973  0.68487  0.65125  Biso   1.000  C
  C306     1.0000 0.83513  0.15027  0.65125  Biso   1.000  C
  C307     1.0000 0.50180  0.01820  0.98458  Biso   1.000  C
  C308     1.0000 0.98180  0.48360  0.98458  Biso   1.000  C
  C309     1.0000 0.51640  0.49820  0.98458  Biso   1.000  C
  C310     1.0000 0.01820  0.50180  0.01542  Biso   1.000  C
  C311     1.0000 0.48360  0.98180  0.01542  Biso   1.000  C
  C312     1.0000 0.49820  0.51640  0.01542  Biso   1.000  C
  C313     1.0000 0.16847  0.35153  0.31791  Biso   1.000  C
  C314     1.0000 0.64847  0.81693  0.31791  Biso   1.000  C
  C315     1.0000 0.18307  0.83153  0.31791  Biso   1.000  C
  C316     1.0000 0.68487  0.83513  0.34875  Biso   1.000  C
  C317     1.0000 0.15027  0.31513  0.34875  Biso   1.000  C
  C318     1.0000 0.16487  0.84973  0.34875  Biso   1.000  C
  C319     1.0000 0.83513  0.68487  0.65125  Biso   1.000  C
  C320     1.0000 0.31513  0.15027  0.65125  Biso   1.000  C
  C321     1.0000 0.84973  0.16487  0.65125  Biso   1.000  C
  C322     1.0000 0.35153  0.16847  0.68209  Biso   1.000  C
  C323     1.0000 0.81693  0.64847  0.68209  Biso   1.000  C
  C324     1.0000 0.83153  0.18307  0.68209  Biso   1.000  C
  C325     1.0000 0.42910  0.94440  0.03164  Biso   1.000  C
  C326     1.0000 0.05560  0.48470  0.03164  Biso   1.000  C
  C327     1.0000 0.51530  0.57090  0.03164  Biso   1.000  C
  C328     1.0000 0.94440  0.42910  0.96836  Biso   1.000  C
  C329     1.0000 0.48470  0.05560  0.96836  Biso   1.000  C
  C330     1.0000 0.57090  0.51530  0.96836  Biso   1.000  C
  C331     1.0000 0.09577  0.27773  0.36497  Biso   1.000  C
  C332     1.0000 0.72227  0.81803  0.36497  Biso   1.000  C
  C333     1.0000 0.18197  0.90423  0.36497  Biso   1.000  C
  C334     1.0000 0.61107  0.76243  0.30169  Biso   1.000  C
  C335     1.0000 0.15137  0.38893  0.30169  Biso   1.000  C
  C336     1.0000 0.23757  0.84863  0.30169  Biso   1.000  C
  C337     1.0000 0.76243  0.61107  0.69831  Biso   1.000  C
  C338     1.0000 0.38893  0.15137  0.69831  Biso   1.000  C
  C339     1.0000 0.84863  0.23757  0.69831  Biso   1.000  C
  C340     1.0000 0.27773  0.09577  0.63503  Biso   1.000  C
  C341     1.0000 0.81803  0.72227  0.63503  Biso   1.000  C
  C342     1.0000 0.90423  0.18197  0.63503  Biso   1.000  C
  C343     1.0000 0.57090  0.05560  0.96836  Biso   1.000  C
  C344     1.0000 0.94440  0.51530  0.96836  Biso   1.000  C
  C345     1.0000 0.48470  0.42910  0.96836  Biso   1.000  C
  C346     1.0000 0.05560  0.57090  0.03164  Biso   1.000  C
  C347     1.0000 0.51530  0.94440  0.03164  Biso   1.000  C
  C348     1.0000 0.42910  0.48470  0.03164  Biso   1.000  C
  C349     1.0000 0.23757  0.38893  0.30169  Biso   1.000  C
  C350     1.0000 0.61107  0.84863  0.30169  Biso   1.000  C
  C351     1.0000 0.15137  0.76243  0.30169  Biso   1.000  C
  C352     1.0000 0.72227  0.90423  0.36497  Biso   1.000  C
  C353     1.0000 0.18197  0.27773  0.36497  Biso   1.000  C
  C354     1.0000 0.09577  0.81803  0.36497  Biso   1.000  C
  C355     1.0000 0.90423  0.72227  0.63503  Biso   1.000  C
  C356     1.0000 0.27773  0.18197  0.63503  Biso   1.000  C
  C357     1.0000 0.81803  0.09577  0.63503  Biso   1.000  C
  C358     1.0000 0.38893  0.23757  0.69831  Biso   1.000  C
  C359     1.0000 0.84863  0.61107  0.69831  Biso   1.000  C
  C360     1.0000 0.76243  0.15137  0.69831  Biso   1.000  C
  C361     1.0000 0.34940  0.89130  0.02180  Biso   1.000  C
  C362     1.0000 0.10870  0.45810  0.02180  Biso   1.000  C
  C363     1.0000 0.54190  0.65060  0.02180  Biso   1.000  C
  C364     1.0000 0.89130  0.34940  0.97820  Biso   1.000  C
  C365     1.0000 0.45810  0.10870  0.97820  Biso   1.000  C
  C366     1.0000 0.65060  0.54190  0.97820  Biso   1.000  C
  C367     1.0000 0.01607  0.22463  0.35513  Biso   1.000  C
  C368     1.0000 0.77537  0.79143  0.35513  Biso   1.000  C
  C369     1.0000 0.20857  0.98393  0.35513  Biso   1.000  C
  C370     1.0000 0.55797  0.68273  0.31153  Biso   1.000  C
  C371     1.0000 0.12477  0.44203  0.31153  Biso   1.000  C
  C372     1.0000 0.31727  0.87523  0.31153  Biso   1.000  C
  C373     1.0000 0.68273  0.55797  0.68847  Biso   1.000  C
  C374     1.0000 0.44203  0.12477  0.68847  Biso   1.000  C
  C375     1.0000 0.87523  0.31727  0.68847  Biso   1.000  C
  C376     1.0000 0.22463  0.01607  0.64487  Biso   1.000  C
  C377     1.0000 0.79143  0.77537  0.64487  Biso   1.000  C
  C378     1.0000 0.98393  0.20857  0.64487  Biso   1.000  C
  C379     1.0000 0.65060  0.10870  0.97820  Biso   1.000  C
  C380     1.0000 0.89130  0.54190  0.97820  Biso   1.000  C
  C381     1.0000 0.45810  0.34940  0.97820  Biso   1.000  C
  C382     1.0000 0.10870  0.65060  0.02180  Biso   1.000  C
  C383     1.0000 0.54190  0.89130  0.02180  Biso   1.000  C
  C384     1.0000 0.34940  0.45810  0.02180  Biso   1.000  C
  C385     1.0000 0.31727  0.44203  0.31153  Biso   1.000  C
  C386     1.0000 0.55797  0.87523  0.31153  Biso   1.000  C
  C387     1.0000 0.12477  0.68273  0.31153  Biso   1.000  C
  C388     1.0000 0.77537  0.98393  0.35513  Biso   1.000  C
  C389     1.0000 0.20857  0.22463  0.35513  Biso   1.000  C
  C390     1.0000 0.01607  0.79143  0.35513  Biso   1.000  C
  C391     1.0000 0.98393  0.77537  0.64487  Biso   1.000  C
  C392     1.0000 0.22463  0.20857  0.64487  Biso   1.000  C
  C393     1.0000 0.79143  0.01607  0.64487  Biso   1.000  C
  C394     1.0000 0.44203  0.31727  0.68847  Biso   1.000  C
  C395     1.0000 0.87523  0.55797  0.68847  Biso   1.000  C
  C396     1.0000 0.68273  0.12477  0.68847  Biso   1.000  C
  H163     1.0000 0.31310  0.91450  0.02680  Biso   1.000  H
  H164     1.0000 0.08550  0.39860  0.02680  Biso   1.000  H
  H165     1.0000 0.60140  0.68690  0.02680  Biso   1.000  H
  H166     1.0000 0.91450  0.31310  0.97320  Biso   1.000  H
  H167     1.0000 0.39860  0.08550  0.97320  Biso   1.000  H
  H168     1.0000 0.68690  0.60140  0.97320  Biso   1.000  H
  H169     1.0000 0.97977  0.24783  0.36013  Biso   1.000  H
  H170     1.0000 0.75217  0.73193  0.36013  Biso   1.000  H
  H171     1.0000 0.26807  0.02023  0.36013  Biso   1.000  H
  H172     1.0000 0.58117  0.64643  0.30653  Biso   1.000  H
  H173     1.0000 0.06527  0.41883  0.30653  Biso   1.000  H
  H174     1.0000 0.35357  0.93473  0.30653  Biso   1.000  H
  H175     1.0000 0.64643  0.58117  0.69347  Biso   1.000  H
  H176     1.0000 0.41883  0.06527  0.69347  Biso   1.000  H
  H177     1.0000 0.93473  0.35357  0.69347  Biso   1.000  H
  H178     1.0000 0.24783  0.97977  0.63987  Biso   1.000  H
  H179     1.0000 0.73193  0.75217  0.63987  Biso   1.000  H
  H180     1.0000 0.02023  0.26807  0.63987  Biso   1.000  H
  H181     1.0000 0.68690  0.08550  0.97320  Biso   1.000  H
  H182     1.0000 0.91450  0.60140  0.97320  Biso   1.000  H
  H183     1.0000 0.39860  0.31310  0.97320  Biso   1.000  H
  H184     1.0000 0.08550  0.68690  0.02680  Biso   1.000  H
  H185     1.0000 0.60140  0.91450  0.02680  Biso   1.000  H
  H186     1.0000 0.31310  0.39860  0.02680  Biso   1.000  H
  H187     1.0000 0.35357  0.41883  0.30653  Biso   1.000  H
  H188     1.0000 0.58117  0.93473  0.30653  Biso   1.000  H
  H189     1.0000 0.06527  0.64643  0.30653  Biso   1.000  H
  H190     1.0000 0.75217  0.02023  0.36013  Biso   1.000  H
  H191     1.0000 0.26807  0.24783  0.36013  Biso   1.000  H
  H192     1.0000 0.97977  0.73193  0.36013  Biso   1.000  H
  H193     1.0000 0.02023  0.75217  0.63987  Biso   1.000  H
  H194     1.0000 0.24783  0.26807  0.63987  Biso   1.000  H
  H195     1.0000 0.73193  0.97977  0.63987  Biso   1.000  H
  H196     1.0000 0.41883  0.35357  0.69347  Biso   1.000  H
  H197     1.0000 0.93473  0.58117  0.69347  Biso   1.000  H
  H198     1.0000 0.64643  0.06527  0.69347  Biso   1.000  H
  H199     1.0000 0.32710  0.83630  0.03050  Biso   1.000  H
  H200     1.0000 0.16370  0.49080  0.03050  Biso   1.000  H
  H201     1.0000 0.50920  0.67290  0.03050  Biso   1.000  H
  H202     1.0000 0.83630  0.32710  0.96950  Biso   1.000  H
  H203     1.0000 0.49080  0.16370  0.96950  Biso   1.000  H
  H204     1.0000 0.67290  0.50920  0.96950  Biso   1.000  H
  H205     1.0000 0.99377  0.16963  0.36383  Biso   1.000  H
  H206     1.0000 0.83037  0.82413  0.36383  Biso   1.000  H
  H207     1.0000 0.17587  0.00623  0.36383  Biso   1.000  H
  H208     1.0000 0.50297  0.66043  0.30283  Biso   1.000  H
  H209     1.0000 0.15747  0.49703  0.30283  Biso   1.000  H
  H210     1.0000 0.33957  0.84253  0.30283  Biso   1.000  H
  H211     1.0000 0.66043  0.50297  0.69717  Biso   1.000  H
  H212     1.0000 0.49703  0.15747  0.69717  Biso   1.000  H
  H213     1.0000 0.84253  0.33957  0.69717  Biso   1.000  H
  H214     1.0000 0.16963  0.99377  0.63617  Biso   1.000  H
  H215     1.0000 0.82413  0.83037  0.63617  Biso   1.000  H
  H216     1.0000 0.00623  0.17587  0.63617  Biso   1.000  H
  H217     1.0000 0.67290  0.16370  0.96950  Biso   1.000  H
  H218     1.0000 0.83630  0.50920  0.96950  Biso   1.000  H
  H219     1.0000 0.49080  0.32710  0.96950  Biso   1.000  H
  H220     1.0000 0.16370  0.67290  0.03050  Biso   1.000  H
  H221     1.0000 0.50920  0.83630  0.03050  Biso   1.000  H
  H222     1.0000 0.32710  0.49080  0.03050  Biso   1.000  H
  H223     1.0000 0.33957  0.49703  0.30283  Biso   1.000  H
  H224     1.0000 0.50297  0.84253  0.30283  Biso   1.000  H
  H225     1.0000 0.15747  0.66043  0.30283  Biso   1.000  H
  H226     1.0000 0.83037  0.00623  0.36383  Biso   1.000  H
  H227     1.0000 0.17587  0.16963  0.36383  Biso   1.000  H
  H228     1.0000 0.99377  0.82413  0.36383  Biso   1.000  H
  H229     1.0000 0.00623  0.83037  0.63617  Biso   1.000  H
  H230     1.0000 0.16963  0.17587  0.63617  Biso   1.000  H
  H231     1.0000 0.82413  0.99377  0.63617  Biso   1.000  H
  H232     1.0000 0.49703  0.33957  0.69717  Biso   1.000  H
  H233     1.0000 0.84253  0.50297  0.69717  Biso   1.000  H
  H234     1.0000 0.66043  0.15747  0.69717  Biso   1.000  H
  C397     1.0000 0.66130  0.12440  0.00427  Biso   1.000  C
  C398     1.0000 0.87560  0.53690  0.00427  Biso   1.000  C
  C399     1.0000 0.46310  0.33870  0.00427  Biso   1.000  C
  C400     1.0000 0.12440  0.66130  0.99573  Biso   1.000  C
  C401     1.0000 0.53690  0.87560  0.99573  Biso   1.000  C
  C402     1.0000 0.33870  0.46310  0.99573  Biso   1.000  C
  C403     1.0000 0.32797  0.45773  0.33760  Biso   1.000  C
  C404     1.0000 0.54227  0.87023  0.33760  Biso   1.000  C
  C405     1.0000 0.12977  0.67203  0.33760  Biso   1.000  C
  C406     1.0000 0.79107  0.99463  0.32906  Biso   1.000  C
  C407     1.0000 0.20357  0.20893  0.32906  Biso   1.000  C
  C408     1.0000 0.00537  0.79643  0.32906  Biso   1.000  C
  C409     1.0000 0.99463  0.79107  0.67094  Biso   1.000  C
  C410     1.0000 0.20893  0.20357  0.67094  Biso   1.000  C
  C411     1.0000 0.79643  0.00537  0.67094  Biso   1.000  C
  C412     1.0000 0.45773  0.32797  0.66240  Biso   1.000  C
  C413     1.0000 0.87023  0.54227  0.66240  Biso   1.000  C
  C414     1.0000 0.67203  0.12977  0.66240  Biso   1.000  C
  C415     1.0000 0.33870  0.87560  0.99573  Biso   1.000  C
  C416     1.0000 0.12440  0.46310  0.99573  Biso   1.000  C
  C417     1.0000 0.53690  0.66130  0.99573  Biso   1.000  C
  C418     1.0000 0.87560  0.33870  0.00427  Biso   1.000  C
  C419     1.0000 0.46310  0.12440  0.00427  Biso   1.000  C
  C420     1.0000 0.66130  0.53690  0.00427  Biso   1.000  C
  C421     1.0000 0.00537  0.20893  0.32906  Biso   1.000  C
  C422     1.0000 0.79107  0.79643  0.32906  Biso   1.000  C
  C423     1.0000 0.20357  0.99463  0.32906  Biso   1.000  C
  C424     1.0000 0.54227  0.67203  0.33760  Biso   1.000  C
  C425     1.0000 0.12977  0.45773  0.33760  Biso   1.000  C
  C426     1.0000 0.32797  0.87023  0.33760  Biso   1.000  C
  C427     1.0000 0.67203  0.54227  0.66240  Biso   1.000  C
  C428     1.0000 0.45773  0.12977  0.66240  Biso   1.000  C
  C429     1.0000 0.87023  0.32797  0.66240  Biso   1.000  C
  C430     1.0000 0.20893  0.00537  0.67094  Biso   1.000  C
  C431     1.0000 0.79643  0.79107  0.67094  Biso   1.000  C
  C432     1.0000 0.99463  0.20357  0.67094  Biso   1.000  C
  H235     1.0000 0.71970  0.16200  0.00790  Biso   1.000  H
  H236     1.0000 0.83800  0.55770  0.00790  Biso   1.000  H
  H237     1.0000 0.44230  0.28030  0.00790  Biso   1.000  H
  H238     1.0000 0.16200  0.71970  0.99210  Biso   1.000  H
  H239     1.0000 0.55770  0.83800  0.99210  Biso   1.000  H
  H240     1.0000 0.28030  0.44230  0.99210  Biso   1.000  H
  H241     1.0000 0.38637  0.49533  0.34123  Biso   1.000  H
  H242     1.0000 0.50467  0.89103  0.34123  Biso   1.000  H
  H243     1.0000 0.10897  0.61363  0.34123  Biso   1.000  H
  H244     1.0000 0.82867  0.05303  0.32543  Biso   1.000  H
  H245     1.0000 0.22437  0.17133  0.32543  Biso   1.000  H
  H246     1.0000 0.94697  0.77563  0.32543  Biso   1.000  H
  H247     1.0000 0.05303  0.82867  0.67457  Biso   1.000  H
  H248     1.0000 0.17133  0.22437  0.67457  Biso   1.000  H
  H249     1.0000 0.77563  0.94697  0.67457  Biso   1.000  H
  H250     1.0000 0.49533  0.38637  0.65877  Biso   1.000  H
  H251     1.0000 0.89103  0.50467  0.65877  Biso   1.000  H
  H252     1.0000 0.61363  0.10897  0.65877  Biso   1.000  H
  H253     1.0000 0.28030  0.83800  0.99210  Biso   1.000  H
  H254     1.0000 0.16200  0.44230  0.99210  Biso   1.000  H
  H255     1.0000 0.55770  0.71970  0.99210  Biso   1.000  H
  H256     1.0000 0.83800  0.28030  0.00790  Biso   1.000  H
  H257     1.0000 0.44230  0.16200  0.00790  Biso   1.000  H
  H258     1.0000 0.71970  0.55770  0.00790  Biso   1.000  H
  H259     1.0000 0.94697  0.17133  0.32543  Biso   1.000  H
  H260     1.0000 0.82867  0.77563  0.32543  Biso   1.000  H
  H261     1.0000 0.22437  0.05303  0.32543  Biso   1.000  H
  H262     1.0000 0.50467  0.61363  0.34123  Biso   1.000  H
  H263     1.0000 0.10897  0.49533  0.34123  Biso   1.000  H
  H264     1.0000 0.38637  0.89103  0.34123  Biso   1.000  H
  H265     1.0000 0.61363  0.50467  0.65877  Biso   1.000  H
  H266     1.0000 0.49533  0.10897  0.65877  Biso   1.000  H
  H267     1.0000 0.89103  0.38637  0.65877  Biso   1.000  H
  H268     1.0000 0.17133  0.94697  0.67457  Biso   1.000  H
  H269     1.0000 0.77563  0.82867  0.67457  Biso   1.000  H
  H270     1.0000 0.05303  0.22437  0.67457  Biso   1.000  H
  H271     1.0000 0.62890  0.14950  0.00970  Biso   1.000  H
  H272     1.0000 0.85050  0.47940  0.00970  Biso   1.000  H
  H273     1.0000 0.52060  0.37110  0.00970  Biso   1.000  H
  H274     1.0000 0.14950  0.62890  0.99030  Biso   1.000  H
  H275     1.0000 0.47940  0.85050  0.99030  Biso   1.000  H
  H276     1.0000 0.37110  0.52060  0.99030  Biso   1.000  H
  H277     1.0000 0.29557  0.48283  0.34303  Biso   1.000  H
  H278     1.0000 0.51717  0.81273  0.34303  Biso   1.000  H
  H279     1.0000 0.18727  0.70443  0.34303  Biso   1.000  H
  H280     1.0000 0.81617  0.96223  0.32363  Biso   1.000  H
  H281     1.0000 0.14607  0.18383  0.32363  Biso   1.000  H
  H282     1.0000 0.03777  0.85393  0.32363  Biso   1.000  H
  H283     1.0000 0.96223  0.81617  0.67637  Biso   1.000  H
  H284     1.0000 0.18383  0.14607  0.67637  Biso   1.000  H
  H285     1.0000 0.85393  0.03777  0.67637  Biso   1.000  H
  H286     1.0000 0.48283  0.29557  0.65697  Biso   1.000  H
  H287     1.0000 0.81273  0.51717  0.65697  Biso   1.000  H
  H288     1.0000 0.70443  0.18727  0.65697  Biso   1.000  H
  H289     1.0000 0.37110  0.85050  0.99030  Biso   1.000  H
  H290     1.0000 0.14950  0.52060  0.99030  Biso   1.000  H
  H291     1.0000 0.47940  0.62890  0.99030  Biso   1.000  H
  H292     1.0000 0.85050  0.37110  0.00970  Biso   1.000  H
  H293     1.0000 0.52060  0.14950  0.00970  Biso   1.000  H
  H294     1.0000 0.62890  0.47940  0.00970  Biso   1.000  H
  H295     1.0000 0.03777  0.18383  0.32363  Biso   1.000  H
  H296     1.0000 0.81617  0.85393  0.32363  Biso   1.000  H
  H297     1.0000 0.14607  0.96223  0.32363  Biso   1.000  H
  H298     1.0000 0.51717  0.70443  0.34303  Biso   1.000  H
  H299     1.0000 0.18727  0.48283  0.34303  Biso   1.000  H
  H300     1.0000 0.29557  0.81273  0.34303  Biso   1.000  H
  H301     1.0000 0.70443  0.51717  0.65697  Biso   1.000  H
  H302     1.0000 0.48283  0.18727  0.65697  Biso   1.000  H
  H303     1.0000 0.81273  0.29557  0.65697  Biso   1.000  H
  H304     1.0000 0.18383  0.03777  0.67637  Biso   1.000  H
  H305     1.0000 0.85393  0.81617  0.67637  Biso   1.000  H
  H306     1.0000 0.96223  0.14607  0.67637  Biso   1.000  H
  C433     1.0000 0.67130  0.78150  0.27822  Biso   1.000  C
  C434     1.0000 0.21850  0.88980  0.27822  Biso   1.000  C
  C435     1.0000 0.11020  0.32870  0.27822  Biso   1.000  C
  C436     1.0000 0.78150  0.67130  0.72178  Biso   1.000  C
  C437     1.0000 0.88980  0.21850  0.72178  Biso   1.000  C
  C438     1.0000 0.32870  0.11020  0.72178  Biso   1.000  C
  C439     1.0000 0.33797  0.11483  0.61155  Biso   1.000  C
  C440     1.0000 0.88517  0.22313  0.61155  Biso   1.000  C
  C441     1.0000 0.77687  0.66203  0.61155  Biso   1.000  C
  C442     1.0000 0.44817  0.00463  0.05511  Biso   1.000  C
  C443     1.0000 0.55647  0.55183  0.05511  Biso   1.000  C
  C444     1.0000 0.99537  0.44353  0.05511  Biso   1.000  C
  C445     1.0000 0.00463  0.44817  0.94489  Biso   1.000  C
  C446     1.0000 0.55183  0.55647  0.94489  Biso   1.000  C
  C447     1.0000 0.44353  0.99537  0.94489  Biso   1.000  C
  C448     1.0000 0.11483  0.33797  0.38845  Biso   1.000  C
  C449     1.0000 0.22313  0.88517  0.38845  Biso   1.000  C
  C450     1.0000 0.66203  0.77687  0.38845  Biso   1.000  C
  C451     1.0000 0.32870  0.21850  0.72178  Biso   1.000  C
  C452     1.0000 0.78150  0.11020  0.72178  Biso   1.000  C
  C453     1.0000 0.88980  0.67130  0.72178  Biso   1.000  C
  C454     1.0000 0.21850  0.32870  0.27822  Biso   1.000  C
  C455     1.0000 0.11020  0.78150  0.27822  Biso   1.000  C
  C456     1.0000 0.67130  0.88980  0.27822  Biso   1.000  C
  C457     1.0000 0.99537  0.55183  0.05511  Biso   1.000  C
  C458     1.0000 0.44817  0.44353  0.05511  Biso   1.000  C
  C459     1.0000 0.55647  0.00463  0.05511  Biso   1.000  C
  C460     1.0000 0.88517  0.66203  0.61155  Biso   1.000  C
  C461     1.0000 0.77687  0.11483  0.61155  Biso   1.000  C
  C462     1.0000 0.33797  0.22313  0.61155  Biso   1.000  C
  C463     1.0000 0.66203  0.88517  0.38845  Biso   1.000  C
  C464     1.0000 0.11483  0.77687  0.38845  Biso   1.000  C
  C465     1.0000 0.22313  0.33797  0.38845  Biso   1.000  C
  C466     1.0000 0.55183  0.99537  0.94489  Biso   1.000  C
  C467     1.0000 0.44353  0.44817  0.94489  Biso   1.000  C
  C468     1.0000 0.00463  0.55647  0.94489  Biso   1.000  C
  H307     1.0000 0.64500  0.73340  0.26720  Biso   1.000  H
  H308     1.0000 0.26660  0.91160  0.26720  Biso   1.000  H
  H309     1.0000 0.08840  0.35500  0.26720  Biso   1.000  H
  H310     1.0000 0.73340  0.64500  0.73280  Biso   1.000  H
  H311     1.0000 0.91160  0.26660  0.73280  Biso   1.000  H
  H312     1.0000 0.35500  0.08840  0.73280  Biso   1.000  H
  H313     1.0000 0.31167  0.06673  0.60053  Biso   1.000  H
  H314     1.0000 0.93327  0.24493  0.60053  Biso   1.000  H
  H315     1.0000 0.75507  0.68833  0.60053  Biso   1.000  H
  H316     1.0000 0.40007  0.97833  0.06613  Biso   1.000  H
  H317     1.0000 0.57827  0.59993  0.06613  Biso   1.000  H
  H318     1.0000 0.02167  0.42173  0.06613  Biso   1.000  H
  H319     1.0000 0.97833  0.40007  0.93387  Biso   1.000  H
  H320     1.0000 0.59993  0.57827  0.93387  Biso   1.000  H
  H321     1.0000 0.42173  0.02167  0.93387  Biso   1.000  H
  H322     1.0000 0.06673  0.31167  0.39947  Biso   1.000  H
  H323     1.0000 0.24493  0.93327  0.39947  Biso   1.000  H
  H324     1.0000 0.68833  0.75507  0.39947  Biso   1.000  H
  H325     1.0000 0.35500  0.26660  0.73280  Biso   1.000  H
  H326     1.0000 0.73340  0.08840  0.73280  Biso   1.000  H
  H327     1.0000 0.91160  0.64500  0.73280  Biso   1.000  H
  H328     1.0000 0.26660  0.35500  0.26720  Biso   1.000  H
  H329     1.0000 0.08840  0.73340  0.26720  Biso   1.000  H
  H330     1.0000 0.64500  0.91160  0.26720  Biso   1.000  H
  H331     1.0000 0.02167  0.59993  0.06613  Biso   1.000  H
  H332     1.0000 0.40007  0.42173  0.06613  Biso   1.000  H
  H333     1.0000 0.57827  0.97833  0.06613  Biso   1.000  H
  H334     1.0000 0.93327  0.68833  0.60053  Biso   1.000  H
  H335     1.0000 0.75507  0.06673  0.60053  Biso   1.000  H
  H336     1.0000 0.31167  0.24493  0.60053  Biso   1.000  H
  H337     1.0000 0.68833  0.93327  0.39947  Biso   1.000  H
  H338     1.0000 0.06673  0.75507  0.39947  Biso   1.000  H
  H339     1.0000 0.24493  0.31167  0.39947  Biso   1.000  H
  H340     1.0000 0.59993  0.02167  0.93387  Biso   1.000  H
  H341     1.0000 0.42173  0.40007  0.93387  Biso   1.000  H
  H342     1.0000 0.97833  0.57827  0.93387  Biso   1.000  H
  C469     1.0000 0.72330  0.86170  0.26800  Biso   1.000  C
  C470     1.0000 0.13830  0.86160  0.26800  Biso   1.000  C
  C471     1.0000 0.13840  0.27670  0.26800  Biso   1.000  C
  C472     1.0000 0.86170  0.72330  0.73200  Biso   1.000  C
  C473     1.0000 0.86160  0.13830  0.73200  Biso   1.000  C
  C474     1.0000 0.27670  0.13840  0.73200  Biso   1.000  C
  C475     1.0000 0.38997  0.19503  0.60133  Biso   1.000  C
  C476     1.0000 0.80497  0.19493  0.60133  Biso   1.000  C
  C477     1.0000 0.80507  0.61003  0.60133  Biso   1.000  C
  C478     1.0000 0.52837  0.05663  0.06533  Biso   1.000  C
  C479     1.0000 0.52827  0.47163  0.06533  Biso   1.000  C
  C480     1.0000 0.94337  0.47173  0.06533  Biso   1.000  C
  C481     1.0000 0.05663  0.52837  0.93467  Biso   1.000  C
  C482     1.0000 0.47163  0.52827  0.93467  Biso   1.000  C
  C483     1.0000 0.47173  0.94337  0.93467  Biso   1.000  C
  C484     1.0000 0.19503  0.38997  0.39867  Biso   1.000  C
  C485     1.0000 0.19493  0.80497  0.39867  Biso   1.000  C
  C486     1.0000 0.61003  0.80507  0.39867  Biso   1.000  C
  C487     1.0000 0.76170  0.93070  0.28395  Biso   1.000  C
  C488     1.0000 0.06930  0.83100  0.28395  Biso   1.000  C
  C489     1.0000 0.16900  0.23830  0.28395  Biso   1.000  C
  C490     1.0000 0.93070  0.76170  0.71605  Biso   1.000  C
  C491     1.0000 0.83100  0.06930  0.71605  Biso   1.000  C
  C492     1.0000 0.23830  0.16900  0.71605  Biso   1.000  C
  C493     1.0000 0.42837  0.26403  0.61728  Biso   1.000  C
  C494     1.0000 0.73597  0.16433  0.61728  Biso   1.000  C
  C495     1.0000 0.83567  0.57163  0.61728  Biso   1.000  C
  C496     1.0000 0.59737  0.09503  0.04938  Biso   1.000  C
  C497     1.0000 0.49767  0.40263  0.04938  Biso   1.000  C
  C498     1.0000 0.90497  0.50233  0.04938  Biso   1.000  C
  C499     1.0000 0.09503  0.59737  0.95062  Biso   1.000  C
  C500     1.0000 0.40263  0.49767  0.95062  Biso   1.000  C
  C501     1.0000 0.50233  0.90497  0.95062  Biso   1.000  C
  C502     1.0000 0.26403  0.42837  0.38272  Biso   1.000  C
  C503     1.0000 0.16433  0.73597  0.38272  Biso   1.000  C
  C504     1.0000 0.57163  0.83567  0.38272  Biso   1.000  C
  C505     1.0000 0.23830  0.06930  0.71605  Biso   1.000  C
  C506     1.0000 0.93070  0.16900  0.71605  Biso   1.000  C
  C507     1.0000 0.83100  0.76170  0.71605  Biso   1.000  C
  C508     1.0000 0.06930  0.23830  0.28395  Biso   1.000  C
  C509     1.0000 0.16900  0.93070  0.28395  Biso   1.000  C
  C510     1.0000 0.76170  0.83100  0.28395  Biso   1.000  C
  C511     1.0000 0.90497  0.40263  0.04938  Biso   1.000  C
  C512     1.0000 0.59737  0.50233  0.04938  Biso   1.000  C
  C513     1.0000 0.49767  0.09503  0.04938  Biso   1.000  C
  C514     1.0000 0.73597  0.57163  0.61728  Biso   1.000  C
  C515     1.0000 0.83567  0.26403  0.61728  Biso   1.000  C
  C516     1.0000 0.42837  0.16433  0.61728  Biso   1.000  C
  C517     1.0000 0.57163  0.73597  0.38272  Biso   1.000  C
  C518     1.0000 0.26403  0.83567  0.38272  Biso   1.000  C
  C519     1.0000 0.16433  0.42837  0.38272  Biso   1.000  C
  C520     1.0000 0.40263  0.90497  0.95062  Biso   1.000  C
  C521     1.0000 0.50233  0.59737  0.95062  Biso   1.000  C
  C522     1.0000 0.09503  0.49767  0.95062  Biso   1.000  C
  H343     1.0000 0.79770  0.98550  0.27690  Biso   1.000  H
  H344     1.0000 0.01450  0.81220  0.27690  Biso   1.000  H
  H345     1.0000 0.18780  0.20230  0.27690  Biso   1.000  H
  H346     1.0000 0.98550  0.79770  0.72310  Biso   1.000  H
  H347     1.0000 0.81220  0.01450  0.72310  Biso   1.000  H
  H348     1.0000 0.20230  0.18780  0.72310  Biso   1.000  H
  H349     1.0000 0.46437  0.31883  0.61023  Biso   1.000  H
  H350     1.0000 0.68117  0.14553  0.61023  Biso   1.000  H
  H351     1.0000 0.85447  0.53563  0.61023  Biso   1.000  H
  H352     1.0000 0.65217  0.13103  0.05643  Biso   1.000  H
  H353     1.0000 0.47887  0.34783  0.05643  Biso   1.000  H
  H354     1.0000 0.86897  0.52113  0.05643  Biso   1.000  H
  H355     1.0000 0.13103  0.65217  0.94357  Biso   1.000  H
  H356     1.0000 0.34783  0.47887  0.94357  Biso   1.000  H
  H357     1.0000 0.52113  0.86897  0.94357  Biso   1.000  H
  H358     1.0000 0.31883  0.46437  0.38977  Biso   1.000  H
  H359     1.0000 0.14553  0.68117  0.38977  Biso   1.000  H
  H360     1.0000 0.53563  0.85447  0.38977  Biso   1.000  H
  H361     1.0000 0.20230  0.01450  0.72310  Biso   1.000  H
  H362     1.0000 0.98550  0.18780  0.72310  Biso   1.000  H
  H363     1.0000 0.81220  0.79770  0.72310  Biso   1.000  H
  H364     1.0000 0.01450  0.20230  0.27690  Biso   1.000  H
  H365     1.0000 0.18780  0.98550  0.27690  Biso   1.000  H
  H366     1.0000 0.79770  0.81220  0.27690  Biso   1.000  H
  H367     1.0000 0.86897  0.34783  0.05643  Biso   1.000  H
  H368     1.0000 0.65217  0.52113  0.05643  Biso   1.000  H
  H369     1.0000 0.47887  0.13103  0.05643  Biso   1.000  H
  H370     1.0000 0.68117  0.53563  0.61023  Biso   1.000  H
  H371     1.0000 0.85447  0.31883  0.61023  Biso   1.000  H
  H372     1.0000 0.46437  0.14553  0.61023  Biso   1.000  H
  H373     1.0000 0.53563  0.68117  0.38977  Biso   1.000  H
  H374     1.0000 0.31883  0.85447  0.38977  Biso   1.000  H
  H375     1.0000 0.14553  0.46437  0.38977  Biso   1.000  H
  H376     1.0000 0.34783  0.86897  0.94357  Biso   1.000  H
  H377     1.0000 0.52113  0.65217  0.94357  Biso   1.000  H
  H378     1.0000 0.13103  0.47887  0.94357  Biso   1.000  H
  C523     1.0000 0.74820  0.92100  0.31012  Biso   1.000  C
  C524     1.0000 0.07900  0.82720  0.31012  Biso   1.000  C
  C525     1.0000 0.17280  0.25180  0.31012  Biso   1.000  C
  C526     1.0000 0.92100  0.74820  0.68988  Biso   1.000  C
  C527     1.0000 0.82720  0.07900  0.68988  Biso   1.000  C
  C528     1.0000 0.25180  0.17280  0.68988  Biso   1.000  C
  C529     1.0000 0.41487  0.25433  0.64345  Biso   1.000  C
  C530     1.0000 0.74567  0.16053  0.64345  Biso   1.000  C
  C531     1.0000 0.83947  0.58513  0.64345  Biso   1.000  C
  C532     1.0000 0.58767  0.08153  0.02321  Biso   1.000  C
  C533     1.0000 0.49387  0.41233  0.02321  Biso   1.000  C
  C534     1.0000 0.91847  0.50613  0.02321  Biso   1.000  C
  C535     1.0000 0.08153  0.58767  0.97679  Biso   1.000  C
  C536     1.0000 0.41233  0.49387  0.97679  Biso   1.000  C
  C537     1.0000 0.50613  0.91847  0.97679  Biso   1.000  C
  C538     1.0000 0.25433  0.41487  0.35655  Biso   1.000  C
  C539     1.0000 0.16053  0.74567  0.35655  Biso   1.000  C
  C540     1.0000 0.58513  0.83947  0.35655  Biso   1.000  C
  C541     1.0000 0.25180  0.07900  0.68988  Biso   1.000  C
  C542     1.0000 0.92100  0.17280  0.68988  Biso   1.000  C
  C543     1.0000 0.82720  0.74820  0.68988  Biso   1.000  C
  C544     1.0000 0.07900  0.25180  0.31012  Biso   1.000  C
  C545     1.0000 0.17280  0.92100  0.31012  Biso   1.000  C
  C546     1.0000 0.74820  0.82720  0.31012  Biso   1.000  C
  C547     1.0000 0.91847  0.41233  0.02321  Biso   1.000  C
  C548     1.0000 0.58767  0.50613  0.02321  Biso   1.000  C
  C549     1.0000 0.49387  0.08153  0.02321  Biso   1.000  C
  C550     1.0000 0.74567  0.58513  0.64345  Biso   1.000  C
  C551     1.0000 0.83947  0.25433  0.64345  Biso   1.000  C
  C552     1.0000 0.41487  0.16053  0.64345  Biso   1.000  C
  C553     1.0000 0.58513  0.74567  0.35655  Biso   1.000  C
  C554     1.0000 0.25433  0.83947  0.35655  Biso   1.000  C
  C555     1.0000 0.16053  0.41487  0.35655  Biso   1.000  C
  C556     1.0000 0.41233  0.91847  0.97679  Biso   1.000  C
  C557     1.0000 0.50613  0.58767  0.97679  Biso   1.000  C
  C558     1.0000 0.08153  0.49387  0.97679  Biso   1.000  C
  H379     1.0000 0.77040  0.96050  0.32070  Biso   1.000  H
  H380     1.0000 0.03950  0.80990  0.32070  Biso   1.000  H
  H381     1.0000 0.19010  0.22960  0.32070  Biso   1.000  H
  H382     1.0000 0.96050  0.77040  0.67930  Biso   1.000  H
  H383     1.0000 0.80990  0.03950  0.67930  Biso   1.000  H
  H384     1.0000 0.22960  0.19010  0.67930  Biso   1.000  H
  H385     1.0000 0.43707  0.29383  0.65403  Biso   1.000  H
  H386     1.0000 0.70617  0.14323  0.65403  Biso   1.000  H
  H387     1.0000 0.85677  0.56293  0.65403  Biso   1.000  H
  H388     1.0000 0.62717  0.10373  0.01263  Biso   1.000  H
  H389     1.0000 0.47657  0.37283  0.01263  Biso   1.000  H
  H390     1.0000 0.89627  0.52343  0.01263  Biso   1.000  H
  H391     1.0000 0.10373  0.62717  0.98737  Biso   1.000  H
  H392     1.0000 0.37283  0.47657  0.98737  Biso   1.000  H
  H393     1.0000 0.52343  0.89627  0.98737  Biso   1.000  H
  H394     1.0000 0.29383  0.43707  0.34597  Biso   1.000  H
  H395     1.0000 0.14323  0.70617  0.34597  Biso   1.000  H
  H396     1.0000 0.56293  0.85677  0.34597  Biso   1.000  H
  H397     1.0000 0.22960  0.03950  0.67930  Biso   1.000  H
  H398     1.0000 0.96050  0.19010  0.67930  Biso   1.000  H
  H399     1.0000 0.80990  0.77040  0.67930  Biso   1.000  H
  H400     1.0000 0.03950  0.22960  0.32070  Biso   1.000  H
  H401     1.0000 0.19010  0.96050  0.32070  Biso   1.000  H
  H402     1.0000 0.77040  0.80990  0.32070  Biso   1.000  H
  H403     1.0000 0.89627  0.37283  0.01263  Biso   1.000  H
  H404     1.0000 0.62717  0.52343  0.01263  Biso   1.000  H
  H405     1.0000 0.47657  0.10373  0.01263  Biso   1.000  H
  H406     1.0000 0.70617  0.56293  0.65403  Biso   1.000  H
  H407     1.0000 0.85677  0.29383  0.65403  Biso   1.000  H
  H408     1.0000 0.43707  0.14323  0.65403  Biso   1.000  H
  H409     1.0000 0.56293  0.70617  0.34597  Biso   1.000  H
  H410     1.0000 0.29383  0.85677  0.34597  Biso   1.000  H
  H411     1.0000 0.14323  0.43707  0.34597  Biso   1.000  H
  H412     1.0000 0.37283  0.89627  0.98737  Biso   1.000  H
  H413     1.0000 0.52343  0.62717  0.98737  Biso   1.000  H
  H414     1.0000 0.10373  0.47657  0.98737  Biso   1.000  H
  C559     1.0000 0.69630  0.84150  0.32035  Biso   1.000  C
  C560     1.0000 0.15850  0.85480  0.32035  Biso   1.000  C
  C561     1.0000 0.14520  0.30370  0.32035  Biso   1.000  C
  C562     1.0000 0.84150  0.69630  0.67965  Biso   1.000  C
  C563     1.0000 0.85480  0.15850  0.67965  Biso   1.000  C
  C564     1.0000 0.30370  0.14520  0.67965  Biso   1.000  C
  C565     1.0000 0.36297  0.17483  0.65368  Biso   1.000  C
  C566     1.0000 0.82517  0.18813  0.65368  Biso   1.000  C
  C567     1.0000 0.81187  0.63703  0.65368  Biso   1.000  C
  C568     1.0000 0.50817  0.02963  0.01298  Biso   1.000  C
  C569     1.0000 0.52147  0.49183  0.01298  Biso   1.000  C
  C570     1.0000 0.97037  0.47853  0.01298  Biso   1.000  C
  C571     1.0000 0.02963  0.50817  0.98702  Biso   1.000  C
  C572     1.0000 0.49183  0.52147  0.98702  Biso   1.000  C
  C573     1.0000 0.47853  0.97037  0.98702  Biso   1.000  C
  C574     1.0000 0.17483  0.36297  0.34632  Biso   1.000  C
  C575     1.0000 0.18813  0.82517  0.34632  Biso   1.000  C
  C576     1.0000 0.63703  0.81187  0.34632  Biso   1.000  C
  C577     1.0000 0.30370  0.15850  0.67965  Biso   1.000  C
  C578     1.0000 0.84150  0.14520  0.67965  Biso   1.000  C
  C579     1.0000 0.85480  0.69630  0.67965  Biso   1.000  C
  C580     1.0000 0.15850  0.30370  0.32035  Biso   1.000  C
  C581     1.0000 0.14520  0.84150  0.32035  Biso   1.000  C
  C582     1.0000 0.69630  0.85480  0.32035  Biso   1.000  C
  C583     1.0000 0.97037  0.49183  0.01298  Biso   1.000  C
  C584     1.0000 0.50817  0.47853  0.01298  Biso   1.000  C
  C585     1.0000 0.52147  0.02963  0.01298  Biso   1.000  C
  C586     1.0000 0.82517  0.63703  0.65368  Biso   1.000  C
  C587     1.0000 0.81187  0.17483  0.65368  Biso   1.000  C
  C588     1.0000 0.36297  0.18813  0.65368  Biso   1.000  C
  C589     1.0000 0.63703  0.82517  0.34632  Biso   1.000  C
  C590     1.0000 0.17483  0.81187  0.34632  Biso   1.000  C
  C591     1.0000 0.18813  0.36297  0.34632  Biso   1.000  C
  C592     1.0000 0.49183  0.97037  0.98702  Biso   1.000  C
  C593     1.0000 0.47853  0.50817  0.98702  Biso   1.000  C
  C594     1.0000 0.02963  0.52147  0.98702  Biso   1.000  C
  C595     1.0000 0.65790  0.77180  0.30440  Biso   1.000  C
  C596     1.0000 0.22820  0.88610  0.30440  Biso   1.000  C
  C597     1.0000 0.11390  0.34210  0.30440  Biso   1.000  C
  C598     1.0000 0.77180  0.65790  0.69560  Biso   1.000  C
  C599     1.0000 0.88610  0.22820  0.69560  Biso   1.000  C
  C600     1.0000 0.34210  0.11390  0.69560  Biso   1.000  C
  C601     1.0000 0.32457  0.10513  0.63773  Biso   1.000  C
  C602     1.0000 0.89487  0.21943  0.63773  Biso   1.000  C
  C603     1.0000 0.78057  0.67543  0.63773  Biso   1.000  C
  C604     1.0000 0.43847  0.99123  0.02893  Biso   1.000  C
  C605     1.0000 0.55277  0.56153  0.02893  Biso   1.000  C
  C606     1.0000 0.00877  0.44723  0.02893  Biso   1.000  C
  C607     1.0000 0.99123  0.43847  0.97107  Biso   1.000  C
  C608     1.0000 0.56153  0.55277  0.97107  Biso   1.000  C
  C609     1.0000 0.44723  0.00877  0.97107  Biso   1.000  C
  C610     1.0000 0.10513  0.32457  0.36227  Biso   1.000  C
  C611     1.0000 0.21943  0.89487  0.36227  Biso   1.000  C
  C612     1.0000 0.67543  0.78057  0.36227  Biso   1.000  C
  C613     1.0000 0.34210  0.22820  0.69560  Biso   1.000  C
  C614     1.0000 0.77180  0.11390  0.69560  Biso   1.000  C
  C615     1.0000 0.88610  0.65790  0.69560  Biso   1.000  C
  C616     1.0000 0.22820  0.34210  0.30440  Biso   1.000  C
  C617     1.0000 0.11390  0.77180  0.30440  Biso   1.000  C
  C618     1.0000 0.65790  0.88610  0.30440  Biso   1.000  C
  C619     1.0000 0.00877  0.56153  0.02893  Biso   1.000  C
  C620     1.0000 0.43847  0.44723  0.02893  Biso   1.000  C
  C621     1.0000 0.55277  0.99123  0.02893  Biso   1.000  C
  C622     1.0000 0.89487  0.67543  0.63773  Biso   1.000  C
  C623     1.0000 0.78057  0.10513  0.63773  Biso   1.000  C
  C624     1.0000 0.32457  0.21943  0.63773  Biso   1.000  C
  C625     1.0000 0.67543  0.89487  0.36227  Biso   1.000  C
  C626     1.0000 0.10513  0.78057  0.36227  Biso   1.000  C
  C627     1.0000 0.21943  0.32457  0.36227  Biso   1.000  C
  C628     1.0000 0.56153  0.00877  0.97107  Biso   1.000  C
  C629     1.0000 0.44723  0.43847  0.97107  Biso   1.000  C
  C630     1.0000 0.99123  0.55277  0.97107  Biso   1.000  C
  C631     1.0000 0.60590  0.69240  0.31463  Biso   1.000  C
  C632     1.0000 0.30760  0.91350  0.31463  Biso   1.000  C
  C633     1.0000 0.08650  0.39410  0.31463  Biso   1.000  C
  C634     1.0000 0.69240  0.60590  0.68537  Biso   1.000  C
  C635     1.0000 0.91350  0.30760  0.68537  Biso   1.000  C
  C636     1.0000 0.39410  0.08650  0.68537  Biso   1.000  C
  C637     1.0000 0.27257  0.02573  0.64796  Biso   1.000  C
  C638     1.0000 0.97427  0.24683  0.64796  Biso   1.000  C
  C639     1.0000 0.75317  0.72743  0.64796  Biso   1.000  C
  C640     1.0000 0.35907  0.93923  0.01870  Biso   1.000  C
  C641     1.0000 0.58017  0.64093  0.01870  Biso   1.000  C
  C642     1.0000 0.06077  0.41983  0.01870  Biso   1.000  C
  C643     1.0000 0.93923  0.35907  0.98130  Biso   1.000  C
  C644     1.0000 0.64093  0.58017  0.98130  Biso   1.000  C
  C645     1.0000 0.41983  0.06077  0.98130  Biso   1.000  C
  C646     1.0000 0.02573  0.27257  0.35204  Biso   1.000  C
  C647     1.0000 0.24683  0.97427  0.35204  Biso   1.000  C
  C648     1.0000 0.72743  0.75317  0.35204  Biso   1.000  C
  C649     1.0000 0.39410  0.30760  0.68537  Biso   1.000  C
  C650     1.0000 0.69240  0.08650  0.68537  Biso   1.000  C
  C651     1.0000 0.91350  0.60590  0.68537  Biso   1.000  C
  C652     1.0000 0.30760  0.39410  0.31463  Biso   1.000  C
  C653     1.0000 0.08650  0.69240  0.31463  Biso   1.000  C
  C654     1.0000 0.60590  0.91350  0.31463  Biso   1.000  C
  C655     1.0000 0.06077  0.64093  0.01870  Biso   1.000  C
  C656     1.0000 0.35907  0.41983  0.01870  Biso   1.000  C
  C657     1.0000 0.58017  0.93923  0.01870  Biso   1.000  C
  C658     1.0000 0.97427  0.72743  0.64796  Biso   1.000  C
  C659     1.0000 0.75317  0.02573  0.64796  Biso   1.000  C
  C660     1.0000 0.27257  0.24683  0.64796  Biso   1.000  C
  C661     1.0000 0.72743  0.97427  0.35204  Biso   1.000  C
  C662     1.0000 0.02573  0.75317  0.35204  Biso   1.000  C
  C663     1.0000 0.24683  0.27257  0.35204  Biso   1.000  C
  C664     1.0000 0.64093  0.06077  0.98130  Biso   1.000  C
  C665     1.0000 0.41983  0.35907  0.98130  Biso   1.000  C
  C666     1.0000 0.93923  0.58017  0.98130  Biso   1.000  C
  H415     1.0000 0.62830  0.65730  0.30950  Biso   1.000  H
  H416     1.0000 0.34270  0.97100  0.30950  Biso   1.000  H
  H417     1.0000 0.02900  0.37170  0.30950  Biso   1.000  H
  H418     1.0000 0.65730  0.62830  0.69050  Biso   1.000  H
  H419     1.0000 0.97100  0.34270  0.69050  Biso   1.000  H
  H420     1.0000 0.37170  0.02900  0.69050  Biso   1.000  H
  H421     1.0000 0.29497  0.99063  0.64283  Biso   1.000  H
  H422     1.0000 0.00937  0.30433  0.64283  Biso   1.000  H
  H423     1.0000 0.69567  0.70503  0.64283  Biso   1.000  H
  H424     1.0000 0.32397  0.96163  0.02383  Biso   1.000  H
  H425     1.0000 0.63767  0.67603  0.02383  Biso   1.000  H
  H426     1.0000 0.03837  0.36233  0.02383  Biso   1.000  H
  H427     1.0000 0.96163  0.32397  0.97617  Biso   1.000  H
  H428     1.0000 0.67603  0.63767  0.97617  Biso   1.000  H
  H429     1.0000 0.36233  0.03837  0.97617  Biso   1.000  H
  H430     1.0000 0.99063  0.29497  0.35717  Biso   1.000  H
  H431     1.0000 0.30433  0.00937  0.35717  Biso   1.000  H
  H432     1.0000 0.70503  0.69567  0.35717  Biso   1.000  H
  H433     1.0000 0.37170  0.34270  0.69050  Biso   1.000  H
  H434     1.0000 0.65730  0.02900  0.69050  Biso   1.000  H
  H435     1.0000 0.97100  0.62830  0.69050  Biso   1.000  H
  H436     1.0000 0.34270  0.37170  0.30950  Biso   1.000  H
  H437     1.0000 0.02900  0.65730  0.30950  Biso   1.000  H
  H438     1.0000 0.62830  0.97100  0.30950  Biso   1.000  H
  H439     1.0000 0.03837  0.67603  0.02383  Biso   1.000  H
  H440     1.0000 0.32397  0.36233  0.02383  Biso   1.000  H
  H441     1.0000 0.63767  0.96163  0.02383  Biso   1.000  H
  H442     1.0000 0.00937  0.70503  0.64283  Biso   1.000  H
  H443     1.0000 0.69567  0.99063  0.64283  Biso   1.000  H
  H444     1.0000 0.29497  0.30433  0.64283  Biso   1.000  H
  H445     1.0000 0.70503  0.00937  0.35717  Biso   1.000  H
  H446     1.0000 0.99063  0.69567  0.35717  Biso   1.000  H
  H447     1.0000 0.30433  0.29497  0.35717  Biso   1.000  H
  H448     1.0000 0.67603  0.03837  0.97617  Biso   1.000  H
  H449     1.0000 0.36233  0.32397  0.97617  Biso   1.000  H
  H450     1.0000 0.96163  0.63767  0.97617  Biso   1.000  H
  H451     1.0000 0.55190  0.67010  0.30660  Biso   1.000  H
  H452     1.0000 0.32990  0.88180  0.30660  Biso   1.000  H
  H453     1.0000 0.11820  0.44810  0.30660  Biso   1.000  H
  H454     1.0000 0.67010  0.55190  0.69340  Biso   1.000  H
  H455     1.0000 0.88180  0.32990  0.69340  Biso   1.000  H
  H456     1.0000 0.44810  0.11820  0.69340  Biso   1.000  H
  H457     1.0000 0.21857  0.00343  0.63993  Biso   1.000  H
  H458     1.0000 0.99657  0.21513  0.63993  Biso   1.000  H
  H459     1.0000 0.78487  0.78143  0.63993  Biso   1.000  H
  H460     1.0000 0.33677  0.88523  0.02673  Biso   1.000  H
  H461     1.0000 0.54847  0.66323  0.02673  Biso   1.000  H
  H462     1.0000 0.11477  0.45153  0.02673  Biso   1.000  H
  H463     1.0000 0.88523  0.33677  0.97327  Biso   1.000  H
  H464     1.0000 0.66323  0.54847  0.97327  Biso   1.000  H
  H465     1.0000 0.45153  0.11477  0.97327  Biso   1.000  H
  H466     1.0000 0.00343  0.21857  0.36007  Biso   1.000  H
  H467     1.0000 0.21513  0.99657  0.36007  Biso   1.000  H
  H468     1.0000 0.78143  0.78487  0.36007  Biso   1.000  H
  H469     1.0000 0.44810  0.32990  0.69340  Biso   1.000  H
  H470     1.0000 0.67010  0.11820  0.69340  Biso   1.000  H
  H471     1.0000 0.88180  0.55190  0.69340  Biso   1.000  H
  H472     1.0000 0.32990  0.44810  0.30660  Biso   1.000  H
  H473     1.0000 0.11820  0.67010  0.30660  Biso   1.000  H
  H474     1.0000 0.55190  0.88180  0.30660  Biso   1.000  H
  H475     1.0000 0.11477  0.66323  0.02673  Biso   1.000  H
  H476     1.0000 0.33677  0.45153  0.02673  Biso   1.000  H
  H477     1.0000 0.54847  0.88523  0.02673  Biso   1.000  H
  H478     1.0000 0.99657  0.78143  0.63993  Biso   1.000  H
  H479     1.0000 0.78487  0.00343  0.63993  Biso   1.000  H
  H480     1.0000 0.21857  0.21513  0.63993  Biso   1.000  H
  H481     1.0000 0.78143  0.99657  0.36007  Biso   1.000  H
  H482     1.0000 0.00343  0.78487  0.36007  Biso   1.000  H
  H483     1.0000 0.21513  0.21857  0.36007  Biso   1.000  H
  H484     1.0000 0.66323  0.11477  0.97327  Biso   1.000  H
  H485     1.0000 0.45153  0.33677  0.97327  Biso   1.000  H
  H486     1.0000 0.88523  0.54847  0.97327  Biso   1.000  H
  C667     1.0000 0.59250  0.68270  0.34080  Biso   1.000  C
  C668     1.0000 0.31730  0.90980  0.34080  Biso   1.000  C
  C669     1.0000 0.09020  0.40750  0.34080  Biso   1.000  C
  C670     1.0000 0.68270  0.59250  0.65920  Biso   1.000  C
  C671     1.0000 0.90980  0.31730  0.65920  Biso   1.000  C
  C672     1.0000 0.40750  0.09020  0.65920  Biso   1.000  C
  C673     1.0000 0.25917  0.01603  0.67413  Biso   1.000  C
  C674     1.0000 0.98397  0.24313  0.67413  Biso   1.000  C
  C675     1.0000 0.75687  0.74083  0.67413  Biso   1.000  C
  C676     1.0000 0.34937  0.92583  0.99253  Biso   1.000  C
  C677     1.0000 0.57647  0.65063  0.99253  Biso   1.000  C
  C678     1.0000 0.07417  0.42353  0.99253  Biso   1.000  C
  C679     1.0000 0.92583  0.34937  0.00747  Biso   1.000  C
  C680     1.0000 0.65063  0.57647  0.00747  Biso   1.000  C
  C681     1.0000 0.42353  0.07417  0.00747  Biso   1.000  C
  C682     1.0000 0.01603  0.25917  0.32587  Biso   1.000  C
  C683     1.0000 0.24313  0.98397  0.32587  Biso   1.000  C
  C684     1.0000 0.74083  0.75687  0.32587  Biso   1.000  C
  C685     1.0000 0.40750  0.31730  0.65920  Biso   1.000  C
  C686     1.0000 0.68270  0.09020  0.65920  Biso   1.000  C
  C687     1.0000 0.90980  0.59250  0.65920  Biso   1.000  C
  C688     1.0000 0.31730  0.40750  0.34080  Biso   1.000  C
  C689     1.0000 0.09020  0.68270  0.34080  Biso   1.000  C
  C690     1.0000 0.59250  0.90980  0.34080  Biso   1.000  C
  C691     1.0000 0.07417  0.65063  0.99253  Biso   1.000  C
  C692     1.0000 0.34937  0.42353  0.99253  Biso   1.000  C
  C693     1.0000 0.57647  0.92583  0.99253  Biso   1.000  C
  C694     1.0000 0.98397  0.74083  0.67413  Biso   1.000  C
  C695     1.0000 0.75687  0.01603  0.67413  Biso   1.000  C
  C696     1.0000 0.25917  0.24313  0.67413  Biso   1.000  C
  C697     1.0000 0.74083  0.98397  0.32587  Biso   1.000  C
  C698     1.0000 0.01603  0.75687  0.32587  Biso   1.000  C
  C699     1.0000 0.24313  0.25917  0.32587  Biso   1.000  C
  C700     1.0000 0.65063  0.07417  0.00747  Biso   1.000  C
  C701     1.0000 0.42353  0.34937  0.00747  Biso   1.000  C
  C702     1.0000 0.92583  0.57647  0.00747  Biso   1.000  C
  H487     1.0000 0.55540  0.62440  0.34470  Biso   1.000  H
  H488     1.0000 0.37560  0.93100  0.34470  Biso   1.000  H
  H489     1.0000 0.06900  0.44460  0.34470  Biso   1.000  H
  H490     1.0000 0.62440  0.55540  0.65530  Biso   1.000  H
  H491     1.0000 0.93100  0.37560  0.65530  Biso   1.000  H
  H492     1.0000 0.44460  0.06900  0.65530  Biso   1.000  H
  H493     1.0000 0.22207  0.95773  0.67803  Biso   1.000  H
  H494     1.0000 0.04227  0.26433  0.67803  Biso   1.000  H
  H495     1.0000 0.73567  0.77793  0.67803  Biso   1.000  H
  H496     1.0000 0.29107  0.88873  0.98863  Biso   1.000  H
  H497     1.0000 0.59767  0.70893  0.98863  Biso   1.000  H
  H498     1.0000 0.11127  0.40233  0.98863  Biso   1.000  H
  H499     1.0000 0.88873  0.29107  0.01137  Biso   1.000  H
  H500     1.0000 0.70893  0.59767  0.01137  Biso   1.000  H
  H501     1.0000 0.40233  0.11127  0.01137  Biso   1.000  H
  H502     1.0000 0.95773  0.22207  0.32197  Biso   1.000  H
  H503     1.0000 0.26433  0.04227  0.32197  Biso   1.000  H
  H504     1.0000 0.77793  0.73567  0.32197  Biso   1.000  H
  H505     1.0000 0.44460  0.37560  0.65530  Biso   1.000  H
  H506     1.0000 0.62440  0.06900  0.65530  Biso   1.000  H
  H507     1.0000 0.93100  0.55540  0.65530  Biso   1.000  H
  H508     1.0000 0.37560  0.44460  0.34470  Biso   1.000  H
  H509     1.0000 0.06900  0.62440  0.34470  Biso   1.000  H
  H510     1.0000 0.55540  0.93100  0.34470  Biso   1.000  H
  H511     1.0000 0.11127  0.70893  0.98863  Biso   1.000  H
  H512     1.0000 0.29107  0.40233  0.98863  Biso   1.000  H
  H513     1.0000 0.59767  0.88873  0.98863  Biso   1.000  H
  H514     1.0000 0.04227  0.77793  0.67803  Biso   1.000  H
  H515     1.0000 0.73567  0.95773  0.67803  Biso   1.000  H
  H516     1.0000 0.22207  0.26433  0.67803  Biso   1.000  H
  H517     1.0000 0.77793  0.04227  0.32197  Biso   1.000  H
  H518     1.0000 0.95773  0.73567  0.32197  Biso   1.000  H
  H519     1.0000 0.26433  0.22207  0.32197  Biso   1.000  H
  H520     1.0000 0.70893  0.11127  0.01137  Biso   1.000  H
  H521     1.0000 0.40233  0.29107  0.01137  Biso   1.000  H
  H522     1.0000 0.88873  0.59767  0.01137  Biso   1.000  H
  H523     1.0000 0.64520  0.70190  0.34940  Biso   1.000  H
  H524     1.0000 0.29810  0.94330  0.34940  Biso   1.000  H
  H525     1.0000 0.05670  0.35480  0.34940  Biso   1.000  H
  H526     1.0000 0.70190  0.64520  0.65060  Biso   1.000  H
  H527     1.0000 0.94330  0.29810  0.65060  Biso   1.000  H
  H528     1.0000 0.35480  0.05670  0.65060  Biso   1.000  H
  H529     1.0000 0.31187  0.03523  0.68273  Biso   1.000  H
  H530     1.0000 0.96477  0.27663  0.68273  Biso   1.000  H
  H531     1.0000 0.72337  0.68813  0.68273  Biso   1.000  H
  H532     1.0000 0.36857  0.97853  0.98393  Biso   1.000  H
  H533     1.0000 0.60997  0.63143  0.98393  Biso   1.000  H
  H534     1.0000 0.02147  0.39003  0.98393  Biso   1.000  H
  H535     1.0000 0.97853  0.36857  0.01607  Biso   1.000  H
  H536     1.0000 0.63143  0.60997  0.01607  Biso   1.000  H
  H537     1.0000 0.39003  0.02147  0.01607  Biso   1.000  H
  H538     1.0000 0.03523  0.31187  0.31727  Biso   1.000  H
  H539     1.0000 0.27663  0.96477  0.31727  Biso   1.000  H
  H540     1.0000 0.68813  0.72337  0.31727  Biso   1.000  H
  H541     1.0000 0.35480  0.29810  0.65060  Biso   1.000  H
  H542     1.0000 0.70190  0.05670  0.65060  Biso   1.000  H
  H543     1.0000 0.94330  0.64520  0.65060  Biso   1.000  H
  H544     1.0000 0.29810  0.35480  0.34940  Biso   1.000  H
  H545     1.0000 0.05670  0.70190  0.34940  Biso   1.000  H
  H546     1.0000 0.64520  0.94330  0.34940  Biso   1.000  H
  H547     1.0000 0.02147  0.63143  0.98393  Biso   1.000  H
  H548     1.0000 0.36857  0.39003  0.98393  Biso   1.000  H
  H549     1.0000 0.60997  0.97853  0.98393  Biso   1.000  H
  H550     1.0000 0.96477  0.68813  0.68273  Biso   1.000  H
  H551     1.0000 0.72337  0.03523  0.68273  Biso   1.000  H
  H552     1.0000 0.31187  0.27663  0.68273  Biso   1.000  H
  H553     1.0000 0.68813  0.96477  0.31727  Biso   1.000  H
  H554     1.0000 0.03523  0.72337  0.31727  Biso   1.000  H
  H555     1.0000 0.27663  0.31187  0.31727  Biso   1.000  H
  H556     1.0000 0.63143  0.02147  0.01607  Biso   1.000  H
  H557     1.0000 0.39003  0.36857  0.01607  Biso   1.000  H
  H558     1.0000 0.97853  0.60997  0.01607  Biso   1.000  H
