data_image0
_cell_length_a       10.7491
_cell_length_b       10.7585
_cell_length_c       11.8901
_cell_angle_alpha    70.146
_cell_angle_beta     78.016
_cell_angle_gamma    61.03

_symmetry_space_group_name_H-M    "P 1"
_symmetry_int_tables_number       1

loop_
  _symmetry_equiv_pos_as_xyz
  'x, y, z'

loop_
  _atom_site_label
  _atom_site_occupancy
  _atom_site_fract_x
  _atom_site_fract_y
  _atom_site_fract_z
  _atom_site_thermal_displace_type
  _atom_site_B_iso_or_equiv
  _atom_site_type_symbol
  C1       1.0000 0.82210  0.02250  0.71680  Biso   1.000  C
  C2       1.0000 0.17790  0.97750  0.28320  Biso   1.000  C
  C3       1.0000 0.82700  0.01160  0.83450  Biso   1.000  C
  C4       1.0000 0.17300  0.98840  0.16550  Biso   1.000  C
  C5       1.0000 0.71770  0.03450  0.64070  Biso   1.000  C
  C6       1.0000 0.28230  0.96550  0.35930  Biso   1.000  C
  C7       1.0000 0.73500  0.99810  0.94530  Biso   1.000  C
  C8       1.0000 0.26500  0.00190  0.05470  Biso   1.000  C
  C9       1.0000 0.05890  0.68680  0.53900  Biso   1.000  C
  C10      1.0000 0.94110  0.31320  0.46100  Biso   1.000  C
  H1       1.0000 0.99550  0.72930  0.47870  Biso   1.000  H
  H2       1.0000 0.00450  0.27070  0.52130  Biso   1.000  H
  C11      1.0000 0.11580  0.53650  0.59010  Biso   1.000  C
  C12      1.0000 0.88420  0.46350  0.40990  Biso   1.000  C
  H3       1.0000 0.09150  0.47940  0.56380  Biso   1.000  H
  H4       1.0000 0.90850  0.52060  0.43620  Biso   1.000  H
  C13      1.0000 0.20880  0.47060  0.68010  Biso   1.000  C
  C14      1.0000 0.79120  0.52940  0.31990  Biso   1.000  C
  C15      1.0000 0.24150  0.56130  0.71390  Biso   1.000  C
  C16      1.0000 0.75850  0.43870  0.28610  Biso   1.000  C
  H5       1.0000 0.30350  0.52180  0.77480  Biso   1.000  H
  H6       1.0000 0.69650  0.47820  0.22520  Biso   1.000  H
  C17      1.0000 0.18230  0.71000  0.65750  Biso   1.000  C
  C18      1.0000 0.81770  0.29000  0.34250  Biso   1.000  C
  H7       1.0000 0.20760  0.76910  0.68010  Biso   1.000  H
  H8       1.0000 0.79240  0.23090  0.31990  Biso   1.000  H
  C19      1.0000 0.27580  0.30710  0.74080  Biso   1.000  C
  C20      1.0000 0.72420  0.69290  0.25920  Biso   1.000  C
  C21      1.0000 0.92260  0.31730  0.87130  Biso   1.000  C
  C22      1.0000 0.07740  0.68270  0.12870  Biso   1.000  C
  H9       1.0000 0.00230  0.27830  0.82190  Biso   1.000  H
  H10      1.0000 0.99770  0.72170  0.17810  Biso   1.000  H
  C23      1.0000 0.84380  0.46860  0.84540  Biso   1.000  C
  C24      1.0000 0.15620  0.53140  0.15460  Biso   1.000  C
  H11      1.0000 0.87100  0.53010  0.78060  Biso   1.000  H
  H12      1.0000 0.12900  0.46990  0.21940  Biso   1.000  H
  C25      1.0000 0.72300  0.52840  0.91730  Biso   1.000  C
  C26      1.0000 0.27700  0.47160  0.08270  Biso   1.000  C
  C27      1.0000 0.68910  0.43120  0.01270  Biso   1.000  C
  C28      1.0000 0.31090  0.56880  0.98730  Biso   1.000  C
  H13      1.0000 0.60880  0.46680  0.06260  Biso   1.000  H
  H14      1.0000 0.39120  0.53320  0.93740  Biso   1.000  H
  C29      1.0000 0.77410  0.28200  0.03360  Biso   1.000  C
  C30      1.0000 0.22590  0.71800  0.96640  Biso   1.000  C
  H15      1.0000 0.75060  0.21800  0.09890  Biso   1.000  H
  H16      1.0000 0.24940  0.78200  0.90110  Biso   1.000  H
  C31      1.0000 0.63050  0.69300  0.89130  Biso   1.000  C
  C32      1.0000 0.36950  0.30700  0.10870  Biso   1.000  C
  Cu1      1.0000 0.00000  0.00000  0.00000  Biso   1.000  Cu
  Cu2      1.0000 0.00000  0.00000  0.50000  Biso   1.000  Cu
  Eu1      1.0000 0.45094  0.00069  0.83559  Biso   1.000  Eu
  Eu2      1.0000 0.54906  0.99931  0.16441  Biso   1.000  Eu
  N1       1.0000 0.94450  0.02400  0.66250  Biso   1.000  N
  N2       1.0000 0.05550  0.97600  0.33750  Biso   1.000  N
  N3       1.0000 0.02250  0.01800  0.73890  Biso   1.000  N
  N4       1.0000 0.97750  0.98200  0.26110  Biso   1.000  N
  N5       1.0000 0.95080  0.01080  0.84440  Biso   1.000  N
  N6       1.0000 0.04920  0.98920  0.15560  Biso   1.000  N
  N7       1.0000 0.09060  0.77390  0.57210  Biso   1.000  N
  N8       1.0000 0.90940  0.22610  0.42790  Biso   1.000  N
  N9       1.0000 0.88960  0.22470  0.96380  Biso   1.000  N
  N10      1.0000 0.11040  0.77530  0.03620  Biso   1.000  N
  O1       1.0000 0.76710  0.00850  0.54190  Biso   1.000  O
  O2       1.0000 0.23290  0.99150  0.45810  Biso   1.000  O
  O3       1.0000 0.58940  0.07570  0.67950  Biso   1.000  O
  O4       1.0000 0.41060  0.92430  0.32050  Biso   1.000  O
  O5       1.0000 0.61890  0.99790  0.94290  Biso   1.000  O
  O6       1.0000 0.38110  0.00210  0.05710  Biso   1.000  O
  O7       1.0000 0.77670  0.98710  0.04110  Biso   1.000  O
  O8       1.0000 0.22330  0.01290  0.95890  Biso   1.000  O
  O9       1.0000 0.26150  0.22030  0.70150  Biso   1.000  O
  O10      1.0000 0.73850  0.77970  0.29850  Biso   1.000  O
  O11      1.0000 0.34800  0.26060  0.83000  Biso   1.000  O
  O12      1.0000 0.65200  0.73940  0.17000  Biso   1.000  O
  O13      1.0000 0.51520  0.74090  0.95170  Biso   1.000  O
  O14      1.0000 0.48480  0.25910  0.04830  Biso   1.000  O
  O15      1.0000 0.66870  0.77810  0.80770  Biso   1.000  O
  O16      1.0000 0.33130  0.22190  0.19230  Biso   1.000  O
  O17      1.0000 0.36800  0.91520  0.71590  Biso   1.000  O
  O18      1.0000 0.63200  0.08480  0.28410  Biso   1.000  O
  H17      1.0000 0.28800  0.96100  0.68700  Biso   1.000  H
  H18      1.0000 0.71200  0.03900  0.31300  Biso   1.000  H
  H19      1.0000 0.40800  0.85000  0.69900  Biso   1.000  H
  H20      1.0000 0.59200  0.15000  0.30100  Biso   1.000  H
  O19      1.0000 0.41120  0.65020  0.19880  Biso   1.000  O
  O20      1.0000 0.58880  0.34980  0.80120  Biso   1.000  O
  H21      1.0000 0.43200  0.63500  0.26700  Biso   1.000  H
  H22      1.0000 0.56800  0.36500  0.73300  Biso   1.000  H
  H23      1.0000 0.47100  0.67500  0.15600  Biso   1.000  H
  H24      1.0000 0.52900  0.32500  0.84400  Biso   1.000  H
  O21      1.0000 0.47650  0.35070  0.33260  Biso   1.000  O
  O22      1.0000 0.52350  0.64930  0.66740  Biso   1.000  O
  H25      1.0000 0.47900  0.28500  0.39500  Biso   1.000  H
  H26      1.0000 0.52100  0.71500  0.60500  Biso   1.000  H
  H27      1.0000 0.44800  0.42400  0.35700  Biso   1.000  H
  H28      1.0000 0.55200  0.57600  0.64300  Biso   1.000  H
  O23      1.0000 0.26970  0.26530  0.45050  Biso   1.000  O
  O24      1.0000 0.73030  0.73470  0.54950  Biso   1.000  O
  H29      1.0000 0.35200  0.19900  0.46200  Biso   1.000  H
  H30      1.0000 0.64800  0.80100  0.53800  Biso   1.000  H
  H31      1.0000 0.22300  0.21900  0.47400  Biso   1.000  H
  H32      1.0000 0.77700  0.78100  0.52600  Biso   1.000  H
