data_image0
_cell_length_a       15.8381
_cell_length_b       16.5226
_cell_length_c       23.5796
_cell_angle_alpha    90
_cell_angle_beta     90
_cell_angle_gamma    90

_symmetry_space_group_name_H-M    "P 1"
_symmetry_int_tables_number       1

loop_
  _symmetry_equiv_pos_as_xyz
  'x, y, z'

loop_
  _atom_site_label
  _atom_site_occupancy
  _atom_site_fract_x
  _atom_site_fract_y
  _atom_site_fract_z
  _atom_site_thermal_displace_type
  _atom_site_B_iso_or_equiv
  _atom_site_type_symbol
  Cu1      1.0000 0.07371  0.61777  0.51124  Biso   1.000  Cu
  Cu2      1.0000 0.57371  0.88223  0.48876  Biso   1.000  Cu
  Cu3      1.0000 0.92629  0.11777  0.98876  Biso   1.000  Cu
  Cu4      1.0000 0.42629  0.38223  0.01124  Biso   1.000  Cu
  O1       1.0000 0.12220  0.47310  0.49643  Biso   1.000  O
  O2       1.0000 0.62220  0.02690  0.50357  Biso   1.000  O
  O3       1.0000 0.87780  0.97310  0.00357  Biso   1.000  O
  O4       1.0000 0.37780  0.52690  0.99643  Biso   1.000  O
  H1       1.0000 0.16100  0.46900  0.52020  Biso   1.000  H
  H2       1.0000 0.66100  0.03100  0.47980  Biso   1.000  H
  H3       1.0000 0.83900  0.96900  0.97980  Biso   1.000  H
  H4       1.0000 0.33900  0.53100  0.02020  Biso   1.000  H
  H5       1.0000 0.07790  0.46300  0.51300  Biso   1.000  H
  H6       1.0000 0.57790  0.03700  0.48700  Biso   1.000  H
  H7       1.0000 0.92210  0.96300  0.98700  Biso   1.000  H
  H8       1.0000 0.42210  0.53700  0.01300  Biso   1.000  H
  Cu5      1.0000 0.88689  0.50600  0.50320  Biso   1.000  Cu
  Cu6      1.0000 0.38689  0.99400  0.49680  Biso   1.000  Cu
  Cu7      1.0000 0.11311  0.00600  0.99680  Biso   1.000  Cu
  Cu8      1.0000 0.61311  0.49400  0.00320  Biso   1.000  Cu
  O5       1.0000 0.82080  0.57210  0.57924  Biso   1.000  O
  O6       1.0000 0.32080  0.92790  0.42076  Biso   1.000  O
  O7       1.0000 0.17920  0.07210  0.92076  Biso   1.000  O
  O8       1.0000 0.67920  0.42790  0.07924  Biso   1.000  O
  H9       1.0000 0.77400  0.58300  0.56600  Biso   1.000  H
  H10      1.0000 0.27400  0.91700  0.43400  Biso   1.000  H
  H11      1.0000 0.22600  0.08300  0.93400  Biso   1.000  H
  H12      1.0000 0.72600  0.41700  0.06600  Biso   1.000  H
  H13      1.0000 0.81600  0.56100  0.61280  Biso   1.000  H
  H14      1.0000 0.31600  0.93900  0.38720  Biso   1.000  H
  H15      1.0000 0.18400  0.06100  0.88720  Biso   1.000  H
  H16      1.0000 0.68400  0.43900  0.11280  Biso   1.000  H
  Cu9      1.0000 0.98202  0.50957  0.62188  Biso   1.000  Cu
  Cu10     1.0000 0.48202  0.99043  0.37812  Biso   1.000  Cu
  Cu11     1.0000 0.01798  0.00957  0.87812  Biso   1.000  Cu
  Cu12     1.0000 0.51798  0.49043  0.12188  Biso   1.000  Cu
  N1       1.0000 0.09450  0.35930  0.68830  Biso   1.000  N
  N2       1.0000 0.59450  0.14070  0.31170  Biso   1.000  N
  N3       1.0000 0.90550  0.85930  0.81170  Biso   1.000  N
  N4       1.0000 0.40550  0.64070  0.18830  Biso   1.000  N
  O9       1.0000 0.09250  0.41650  0.65520  Biso   1.000  O
  O10      1.0000 0.59250  0.08350  0.34480  Biso   1.000  O
  O11      1.0000 0.90750  0.91650  0.84480  Biso   1.000  O
  O12      1.0000 0.40750  0.58350  0.15520  Biso   1.000  O
  O13      1.0000 0.03630  0.30500  0.69180  Biso   1.000  O
  O14      1.0000 0.53630  0.19500  0.30820  Biso   1.000  O
  O15      1.0000 0.96370  0.80500  0.80820  Biso   1.000  O
  O16      1.0000 0.46370  0.69500  0.19180  Biso   1.000  O
  O17      1.0000 0.15420  0.35890  0.72250  Biso   1.000  O
  O18      1.0000 0.65420  0.14110  0.27750  Biso   1.000  O
  O19      1.0000 0.84580  0.85890  0.77750  Biso   1.000  O
  O20      1.0000 0.34580  0.64110  0.22250  Biso   1.000  O
  Cu13     1.0000 0.71609  0.59583  0.43205  Biso   1.000  Cu
  Cu14     1.0000 0.21609  0.90417  0.56795  Biso   1.000  Cu
  Cu15     1.0000 0.28391  0.09583  0.06795  Biso   1.000  Cu
  Cu16     1.0000 0.78391  0.40417  0.93205  Biso   1.000  Cu
  Cu17     1.0000 0.76972  0.39466  0.43418  Biso   1.000  Cu
  Cu18     1.0000 0.26972  0.10534  0.56582  Biso   1.000  Cu
  Cu19     1.0000 0.23028  0.89466  0.06582  Biso   1.000  Cu
  Cu20     1.0000 0.73028  0.60534  0.93418  Biso   1.000  Cu
  O21      1.0000 0.70380  0.27190  0.46490  Biso   1.000  O
  O22      1.0000 0.20380  0.22810  0.53510  Biso   1.000  O
  O23      1.0000 0.29620  0.77190  0.03510  Biso   1.000  O
  O24      1.0000 0.79620  0.72810  0.96490  Biso   1.000  O
  H17      1.0000 0.73100  0.22800  0.46500  Biso   1.000  H
  H18      1.0000 0.23100  0.27200  0.53500  Biso   1.000  H
  H19      1.0000 0.26900  0.72800  0.03500  Biso   1.000  H
  H20      1.0000 0.76900  0.77200  0.96500  Biso   1.000  H
  H21      1.0000 0.66700  0.26200  0.49000  Biso   1.000  H
  H22      1.0000 0.16700  0.23800  0.51000  Biso   1.000  H
  H23      1.0000 0.33300  0.76200  0.01000  Biso   1.000  H
  H24      1.0000 0.83300  0.73800  0.99000  Biso   1.000  H
  Cu21     1.0000 0.60769  0.49367  0.50661  Biso   1.000  Cu
  Cu22     1.0000 0.10769  0.00633  0.49339  Biso   1.000  Cu
  Cu23     1.0000 0.39231  0.99367  0.99339  Biso   1.000  Cu
  Cu24     1.0000 0.89231  0.50633  0.00661  Biso   1.000  Cu
  O25      1.0000 0.67570  0.42540  0.57967  Biso   1.000  O
  O26      1.0000 0.17570  0.07460  0.42033  Biso   1.000  O
  O27      1.0000 0.32430  0.92540  0.92033  Biso   1.000  O
  O28      1.0000 0.82430  0.57460  0.07967  Biso   1.000  O
  H25      1.0000 0.65800  0.37790  0.57800  Biso   1.000  H
  H26      1.0000 0.15800  0.12210  0.42200  Biso   1.000  H
  H27      1.0000 0.34200  0.87790  0.92200  Biso   1.000  H
  H28      1.0000 0.84200  0.62210  0.07800  Biso   1.000  H
  H29      1.0000 0.72440  0.42200  0.56600  Biso   1.000  H
  H30      1.0000 0.22440  0.07800  0.43400  Biso   1.000  H
  H31      1.0000 0.27560  0.92200  0.93400  Biso   1.000  H
  H32      1.0000 0.77560  0.57800  0.06600  Biso   1.000  H
  Cu25     1.0000 0.51564  0.49451  0.62724  Biso   1.000  Cu
  Cu26     1.0000 0.01564  0.00549  0.37276  Biso   1.000  Cu
  Cu27     1.0000 0.48436  0.99451  0.87276  Biso   1.000  Cu
  Cu28     1.0000 0.98436  0.50549  0.12724  Biso   1.000  Cu
  O29      1.0000 0.39670  0.56970  0.66078  Biso   1.000  O
  O30      1.0000 0.89670  0.93030  0.33922  Biso   1.000  O
  O31      1.0000 0.60330  0.06970  0.83922  Biso   1.000  O
  O32      1.0000 0.10330  0.43030  0.16078  Biso   1.000  O
  H33      1.0000 0.36900  0.59300  0.63570  Biso   1.000  H
  H34      1.0000 0.86900  0.90700  0.36430  Biso   1.000  H
  H35      1.0000 0.63100  0.09300  0.86430  Biso   1.000  H
  H36      1.0000 0.13100  0.40700  0.13570  Biso   1.000  H
  H37      1.0000 0.36700  0.53100  0.67100  Biso   1.000  H
  H38      1.0000 0.86700  0.96900  0.32900  Biso   1.000  H
  H39      1.0000 0.63300  0.03100  0.82900  Biso   1.000  H
  H40      1.0000 0.13300  0.46900  0.17100  Biso   1.000  H
  Cu29     1.0000 0.41738  0.39035  0.51469  Biso   1.000  Cu
  Cu30     1.0000 0.91738  0.10965  0.48531  Biso   1.000  Cu
  Cu31     1.0000 0.58262  0.89035  0.98531  Biso   1.000  Cu
  Cu32     1.0000 0.08262  0.60965  0.01469  Biso   1.000  Cu
  C1       1.0000 0.22440  0.64910  0.57900  Biso   1.000  C
  C2       1.0000 0.72440  0.85090  0.42100  Biso   1.000  C
  C3       1.0000 0.77560  0.14910  0.92100  Biso   1.000  C
  C4       1.0000 0.27560  0.35090  0.07900  Biso   1.000  C
  C5       1.0000 0.17510  0.64660  0.63540  Biso   1.000  C
  C6       1.0000 0.67510  0.85340  0.36460  Biso   1.000  C
  C7       1.0000 0.82490  0.14660  0.86460  Biso   1.000  C
  C8       1.0000 0.32490  0.35340  0.13540  Biso   1.000  C
  H41      1.0000 0.19090  0.69630  0.65720  Biso   1.000  H
  H42      1.0000 0.69090  0.80370  0.34280  Biso   1.000  H
  H43      1.0000 0.80910  0.19630  0.84280  Biso   1.000  H
  H44      1.0000 0.30910  0.30370  0.15720  Biso   1.000  H
  C9       1.0000 0.07990  0.64930  0.62690  Biso   1.000  C
  C10      1.0000 0.57990  0.85070  0.37310  Biso   1.000  C
  C11      1.0000 0.92010  0.14930  0.87310  Biso   1.000  C
  C12      1.0000 0.42010  0.35070  0.12690  Biso   1.000  C
  H45      1.0000 0.06450  0.70370  0.61150  Biso   1.000  H
  H46      1.0000 0.56450  0.79630  0.38850  Biso   1.000  H
  H47      1.0000 0.93550  0.20370  0.88850  Biso   1.000  H
  H48      1.0000 0.43550  0.29630  0.11150  Biso   1.000  H
  C13      1.0000 0.03550  0.63830  0.68390  Biso   1.000  C
  C14      1.0000 0.53550  0.86170  0.31610  Biso   1.000  C
  C15      1.0000 0.96450  0.13830  0.81610  Biso   1.000  C
  C16      1.0000 0.46450  0.36170  0.18390  Biso   1.000  C
  C17      1.0000 0.02340  0.65880  0.40470  Biso   1.000  C
  C18      1.0000 0.52340  0.84120  0.59530  Biso   1.000  C
  C19      1.0000 0.97660  0.15880  0.09530  Biso   1.000  C
  C20      1.0000 0.47660  0.34120  0.90470  Biso   1.000  C
  C21      1.0000 0.94130  0.63460  0.43400  Biso   1.000  C
  C22      1.0000 0.44130  0.86540  0.56600  Biso   1.000  C
  C23      1.0000 0.05870  0.13460  0.06600  Biso   1.000  C
  C24      1.0000 0.55870  0.36540  0.93400  Biso   1.000  C
  H49      1.0000 0.90900  0.68480  0.44340  Biso   1.000  H
  H50      1.0000 0.40900  0.81520  0.55660  Biso   1.000  H
  H51      1.0000 0.09100  0.18480  0.05660  Biso   1.000  H
  H52      1.0000 0.59100  0.31520  0.94340  Biso   1.000  H
  C25      1.0000 0.88380  0.57790  0.39840  Biso   1.000  C
  C26      1.0000 0.38380  0.92210  0.60160  Biso   1.000  C
  C27      1.0000 0.11620  0.07790  0.10160  Biso   1.000  C
  C28      1.0000 0.61620  0.42210  0.89840  Biso   1.000  C
  H53      1.0000 0.91900  0.53360  0.38180  Biso   1.000  H
  H54      1.0000 0.41900  0.96640  0.61820  Biso   1.000  H
  H55      1.0000 0.08100  0.03360  0.11820  Biso   1.000  H
  H56      1.0000 0.58100  0.46640  0.88180  Biso   1.000  H
  C29      1.0000 0.83500  0.62080  0.35030  Biso   1.000  C
  C30      1.0000 0.33500  0.87920  0.64970  Biso   1.000  C
  C31      1.0000 0.16500  0.12080  0.14970  Biso   1.000  C
  C32      1.0000 0.66500  0.37920  0.85030  Biso   1.000  C
  C33      1.0000 0.90670  0.31090  0.47000  Biso   1.000  C
  C34      1.0000 0.40670  0.18910  0.53000  Biso   1.000  C
  C35      1.0000 0.09330  0.81090  0.03000  Biso   1.000  C
  C36      1.0000 0.59330  0.68910  0.97000  Biso   1.000  C
  C37      1.0000 0.86610  0.34390  0.52380  Biso   1.000  C
  C38      1.0000 0.36610  0.15610  0.47620  Biso   1.000  C
  C39      1.0000 0.13390  0.84390  0.97620  Biso   1.000  C
  C40      1.0000 0.63390  0.65610  0.02380  Biso   1.000  C
  H57      1.0000 0.83030  0.30040  0.54090  Biso   1.000  H
  H58      1.0000 0.33030  0.19960  0.45910  Biso   1.000  H
  H59      1.0000 0.16970  0.80040  0.95910  Biso   1.000  H
  H60      1.0000 0.66970  0.69960  0.04090  Biso   1.000  H
  C41      1.0000 0.93180  0.36980  0.56740  Biso   1.000  C
  C42      1.0000 0.43180  0.13020  0.43260  Biso   1.000  C
  C43      1.0000 0.06820  0.86980  0.93260  Biso   1.000  C
  C44      1.0000 0.56820  0.63020  0.06740  Biso   1.000  C
  H61      1.0000 0.97850  0.32900  0.56780  Biso   1.000  H
  H62      1.0000 0.47850  0.17100  0.43220  Biso   1.000  H
  H63      1.0000 0.02150  0.82900  0.93220  Biso   1.000  H
  H64      1.0000 0.52150  0.67100  0.06780  Biso   1.000  H
  C45      1.0000 0.89110  0.37200  0.62630  Biso   1.000  C
  C46      1.0000 0.39110  0.12800  0.37370  Biso   1.000  C
  C47      1.0000 0.10890  0.87200  0.87370  Biso   1.000  C
  C48      1.0000 0.60890  0.62800  0.12630  Biso   1.000  C
  C49      1.0000 0.61450  0.62810  0.62800  Biso   1.000  C
  C50      1.0000 0.11450  0.87190  0.37200  Biso   1.000  C
  C51      1.0000 0.38550  0.12810  0.87200  Biso   1.000  C
  C52      1.0000 0.88550  0.37190  0.12800  Biso   1.000  C
  C53      1.0000 0.56890  0.63170  0.57110  Biso   1.000  C
  C54      1.0000 0.06890  0.86830  0.42890  Biso   1.000  C
  C55      1.0000 0.43110  0.13170  0.92890  Biso   1.000  C
  C56      1.0000 0.93110  0.36830  0.07110  Biso   1.000  C
  H65      1.0000 0.52290  0.67300  0.57360  Biso   1.000  H
  H66      1.0000 0.02290  0.82700  0.42640  Biso   1.000  H
  H67      1.0000 0.47710  0.17300  0.92640  Biso   1.000  H
  H68      1.0000 0.97710  0.32700  0.07360  Biso   1.000  H
  C57      1.0000 0.62900  0.65590  0.52380  Biso   1.000  C
  C58      1.0000 0.12900  0.84410  0.47620  Biso   1.000  C
  C59      1.0000 0.37100  0.15590  0.97620  Biso   1.000  C
  C60      1.0000 0.87100  0.34410  0.02380  Biso   1.000  C
  H69      1.0000 0.66450  0.70230  0.53700  Biso   1.000  H
  H70      1.0000 0.16450  0.79770  0.46300  Biso   1.000  H
  H71      1.0000 0.33550  0.20230  0.96300  Biso   1.000  H
  H72      1.0000 0.83550  0.29770  0.03700  Biso   1.000  H
  C61      1.0000 0.58130  0.68130  0.47120  Biso   1.000  C
  C62      1.0000 0.08130  0.81870  0.52880  Biso   1.000  C
  C63      1.0000 0.41870  0.18130  0.02880  Biso   1.000  C
  C64      1.0000 0.91870  0.31870  0.97120  Biso   1.000  C
  C65      1.0000 0.65240  0.38810  0.35020  Biso   1.000  C
  C66      1.0000 0.15240  0.11190  0.64980  Biso   1.000  C
  C67      1.0000 0.34760  0.88810  0.14980  Biso   1.000  C
  C68      1.0000 0.84760  0.61190  0.85020  Biso   1.000  C
  C69      1.0000 0.60520  0.43100  0.39850  Biso   1.000  C
  C70      1.0000 0.10520  0.06900  0.60150  Biso   1.000  C
  C71      1.0000 0.39480  0.93100  0.10150  Biso   1.000  C
  C72      1.0000 0.89480  0.56900  0.89850  Biso   1.000  C
  H73      1.0000 0.57520  0.47900  0.38230  Biso   1.000  H
  H74      1.0000 0.07520  0.02100  0.61770  Biso   1.000  H
  H75      1.0000 0.42480  0.97900  0.11770  Biso   1.000  H
  H76      1.0000 0.92480  0.52100  0.88230  Biso   1.000  H
  C73      1.0000 0.53970  0.37790  0.43080  Biso   1.000  C
  C74      1.0000 0.03970  0.12210  0.56920  Biso   1.000  C
  C75      1.0000 0.46030  0.87790  0.06920  Biso   1.000  C
  C76      1.0000 0.96030  0.62210  0.93080  Biso   1.000  C
  H77      1.0000 0.56370  0.32230  0.43540  Biso   1.000  H
  H78      1.0000 0.06370  0.17770  0.56460  Biso   1.000  H
  H79      1.0000 0.43630  0.82230  0.06460  Biso   1.000  H
  H80      1.0000 0.93630  0.67770  0.93540  Biso   1.000  H
  C77      1.0000 0.45290  0.37060  0.40220  Biso   1.000  C
  C78      1.0000 0.95290  0.12940  0.59780  Biso   1.000  C
  C79      1.0000 0.54710  0.87060  0.09780  Biso   1.000  C
  C80      1.0000 0.04710  0.62940  0.90220  Biso   1.000  C
  C81      1.0000 0.46130  0.36490  0.68800  Biso   1.000  C
  C82      1.0000 0.96130  0.13510  0.31200  Biso   1.000  C
  C83      1.0000 0.53870  0.86490  0.81200  Biso   1.000  C
  C84      1.0000 0.03870  0.63510  0.18800  Biso   1.000  C
  C85      1.0000 0.41430  0.35750  0.63207  Biso   1.000  C
  C86      1.0000 0.91430  0.14250  0.36793  Biso   1.000  C
  C87      1.0000 0.58570  0.85750  0.86793  Biso   1.000  C
  C88      1.0000 0.08570  0.64250  0.13207  Biso   1.000  C
  H81      1.0000 0.42170  0.30120  0.61730  Biso   1.000  H
  H82      1.0000 0.92170  0.19880  0.38270  Biso   1.000  H
  H83      1.0000 0.57830  0.80120  0.88270  Biso   1.000  H
  H84      1.0000 0.07830  0.69880  0.11730  Biso   1.000  H
  C89      1.0000 0.31910  0.37310  0.64150  Biso   1.000  C
  C90      1.0000 0.81910  0.12690  0.35850  Biso   1.000  C
  C91      1.0000 0.68090  0.87310  0.85850  Biso   1.000  C
  C92      1.0000 0.18090  0.62690  0.14150  Biso   1.000  C
  H85      1.0000 0.29140  0.32040  0.65090  Biso   1.000  H
  H86      1.0000 0.79140  0.17960  0.34910  Biso   1.000  H
  H87      1.0000 0.70860  0.82040  0.84910  Biso   1.000  H
  H88      1.0000 0.20860  0.67960  0.15090  Biso   1.000  H
  C93      1.0000 0.28010  0.40520  0.58660  Biso   1.000  C
  C94      1.0000 0.78010  0.09480  0.41340  Biso   1.000  C
  C95      1.0000 0.71990  0.90520  0.91340  Biso   1.000  C
  C96      1.0000 0.21990  0.59480  0.08660  Biso   1.000  C
  O33      1.0000 0.18510  0.65980  0.53233  Biso   1.000  O
  O34      1.0000 0.68510  0.84020  0.46767  Biso   1.000  O
  O35      1.0000 0.81490  0.15980  0.96767  Biso   1.000  O
  O36      1.0000 0.31490  0.34020  0.03233  Biso   1.000  O
  O37      1.0000 0.30280  0.64480  0.58103  Biso   1.000  O
  O38      1.0000 0.80280  0.85520  0.41897  Biso   1.000  O
  O39      1.0000 0.69720  0.14480  0.91897  Biso   1.000  O
  O40      1.0000 0.19720  0.35520  0.08103  Biso   1.000  O
  O41      1.0000 0.20000  0.57910  0.66854  Biso   1.000  O
  O42      1.0000 0.70000  0.92090  0.33146  Biso   1.000  O
  O43      1.0000 0.80000  0.07910  0.83146  Biso   1.000  O
  O44      1.0000 0.30000  0.42090  0.16854  Biso   1.000  O
  H89      1.0000 0.19740  0.53690  0.64870  Biso   1.000  H
  H90      1.0000 0.69740  0.96310  0.35130  Biso   1.000  H
  H91      1.0000 0.80260  0.03690  0.85130  Biso   1.000  H
  H92      1.0000 0.30260  0.46310  0.14870  Biso   1.000  H
  O45      1.0000 0.05170  0.59000  0.58853  Biso   1.000  O
  O46      1.0000 0.55170  0.91000  0.41147  Biso   1.000  O
  O47      1.0000 0.94830  0.09000  0.91147  Biso   1.000  O
  O48      1.0000 0.44830  0.41000  0.08853  Biso   1.000  O
  O49      1.0000 0.98830  0.57650  0.68933  Biso   1.000  O
  O50      1.0000 0.48830  0.92350  0.31067  Biso   1.000  O
  O51      1.0000 0.01170  0.07650  0.81067  Biso   1.000  O
  O52      1.0000 0.51170  0.42350  0.18933  Biso   1.000  O
  O53      1.0000 0.04740  0.68850  0.72244  Biso   1.000  O
  O54      1.0000 0.54740  0.81150  0.27756  Biso   1.000  O
  O55      1.0000 0.95260  0.18850  0.77756  Biso   1.000  O
  O56      1.0000 0.45260  0.31150  0.22244  Biso   1.000  O
  O57      1.0000 0.02360  0.68970  0.35719  Biso   1.000  O
  O58      1.0000 0.52360  0.81030  0.64281  Biso   1.000  O
  O59      1.0000 0.97640  0.18970  0.14281  Biso   1.000  O
  O60      1.0000 0.47640  0.31030  0.85719  Biso   1.000  O
  O61      1.0000 0.09150  0.64880  0.43291  Biso   1.000  O
  O62      1.0000 0.59150  0.85120  0.56709  Biso   1.000  O
  O63      1.0000 0.90850  0.14880  0.06709  Biso   1.000  O
  O64      1.0000 0.40850  0.35120  0.93291  Biso   1.000  O
  O65      1.0000 0.96107  0.59340  0.48539  Biso   1.000  O
  O66      1.0000 0.46107  0.90660  0.51461  Biso   1.000  O
  O67      1.0000 0.03893  0.09340  0.01461  Biso   1.000  O
  O68      1.0000 0.53893  0.40660  0.98539  Biso   1.000  O
  O69      1.0000 0.82500  0.54370  0.43732  Biso   1.000  O
  O70      1.0000 0.32500  0.95630  0.56268  Biso   1.000  O
  O71      1.0000 0.17500  0.04370  0.06268  Biso   1.000  O
  O72      1.0000 0.67500  0.45630  0.93732  Biso   1.000  O
  O73      1.0000 0.86990  0.64000  0.30576  Biso   1.000  O
  O74      1.0000 0.36990  0.86000  0.69424  Biso   1.000  O
  O75      1.0000 0.13010  0.14000  0.19424  Biso   1.000  O
  O76      1.0000 0.63010  0.36000  0.80576  Biso   1.000  O
  O77      1.0000 0.75550  0.63050  0.35936  Biso   1.000  O
  O78      1.0000 0.25550  0.86950  0.64064  Biso   1.000  O
  O79      1.0000 0.24450  0.13050  0.14064  Biso   1.000  O
  O80      1.0000 0.74450  0.36950  0.85936  Biso   1.000  O
  O81      1.0000 0.87900  0.33940  0.42270  Biso   1.000  O
  O82      1.0000 0.37900  0.16060  0.57730  Biso   1.000  O
  O83      1.0000 0.12100  0.83940  0.07730  Biso   1.000  O
  O84      1.0000 0.62100  0.66060  0.92270  Biso   1.000  O
  O85      1.0000 0.96200  0.25800  0.47426  Biso   1.000  O
  O86      1.0000 0.46200  0.24200  0.52574  Biso   1.000  O
  O87      1.0000 0.03800  0.75800  0.02574  Biso   1.000  O
  O88      1.0000 0.53800  0.74200  0.97426  Biso   1.000  O
  O89      1.0000 0.81337  0.41138  0.51083  Biso   1.000  O
  O90      1.0000 0.31337  0.08862  0.48917  Biso   1.000  O
  O91      1.0000 0.18663  0.91138  0.98917  Biso   1.000  O
  O92      1.0000 0.68663  0.58862  0.01083  Biso   1.000  O
  O93      1.0000 0.96630  0.44698  0.55249  Biso   1.000  O
  O94      1.0000 0.46630  0.05302  0.44751  Biso   1.000  O
  O95      1.0000 0.03370  0.94698  0.94751  Biso   1.000  O
  O96      1.0000 0.53370  0.55302  0.05249  Biso   1.000  O
  O97      1.0000 0.90850  0.43360  0.65748  Biso   1.000  O
  O98      1.0000 0.40850  0.06640  0.34252  Biso   1.000  O
  O99      1.0000 0.09150  0.93360  0.84252  Biso   1.000  O
  O100     1.0000 0.59150  0.56640  0.15748  Biso   1.000  O
  O101     1.0000 0.84430  0.31630  0.64071  Biso   1.000  O
  O102     1.0000 0.34430  0.18370  0.35929  Biso   1.000  O
  O103     1.0000 0.15570  0.81630  0.85929  Biso   1.000  O
  O104     1.0000 0.65570  0.68370  0.14071  Biso   1.000  O
  O105     1.0000 0.59660  0.56840  0.66045  Biso   1.000  O
  O106     1.0000 0.09660  0.93160  0.33955  Biso   1.000  O
  O107     1.0000 0.40340  0.06840  0.83955  Biso   1.000  O
  O108     1.0000 0.90340  0.43160  0.16045  Biso   1.000  O
  O109     1.0000 0.66530  0.68190  0.64081  Biso   1.000  O
  O110     1.0000 0.16530  0.81810  0.35919  Biso   1.000  O
  O111     1.0000 0.33470  0.18190  0.85919  Biso   1.000  O
  O112     1.0000 0.83470  0.31810  0.14081  Biso   1.000  O
  O113     1.0000 0.53220  0.55489  0.55742  Biso   1.000  O
  O114     1.0000 0.03220  0.94511  0.44258  Biso   1.000  O
  O115     1.0000 0.46780  0.05489  0.94258  Biso   1.000  O
  O116     1.0000 0.96780  0.44511  0.05742  Biso   1.000  O
  O117     1.0000 0.68269  0.58855  0.51191  Biso   1.000  O
  O118     1.0000 0.18269  0.91145  0.48809  Biso   1.000  O
  O119     1.0000 0.31731  0.08855  0.98809  Biso   1.000  O
  O120     1.0000 0.81731  0.41145  0.01191  Biso   1.000  O
  O121     1.0000 0.60830  0.65230  0.42383  Biso   1.000  O
  O122     1.0000 0.10830  0.84770  0.57617  Biso   1.000  O
  O123     1.0000 0.39170  0.15230  0.07617  Biso   1.000  O
  O124     1.0000 0.89170  0.34770  0.92383  Biso   1.000  O
  O125     1.0000 0.52070  0.72840  0.47544  Biso   1.000  O
  O126     1.0000 0.02070  0.77160  0.52456  Biso   1.000  O
  O127     1.0000 0.47930  0.22840  0.02456  Biso   1.000  O
  O128     1.0000 0.97930  0.27160  0.97544  Biso   1.000  O
  O129     1.0000 0.73070  0.37400  0.35852  Biso   1.000  O
  O130     1.0000 0.23070  0.12600  0.64148  Biso   1.000  O
  O131     1.0000 0.26930  0.87400  0.14148  Biso   1.000  O
  O132     1.0000 0.76930  0.62600  0.85852  Biso   1.000  O
  O133     1.0000 0.61680  0.37030  0.30537  Biso   1.000  O
  O134     1.0000 0.11680  0.12970  0.69463  Biso   1.000  O
  O135     1.0000 0.38320  0.87030  0.19463  Biso   1.000  O
  O136     1.0000 0.88320  0.62970  0.80537  Biso   1.000  O
  O137     1.0000 0.66620  0.45910  0.43896  Biso   1.000  O
  O138     1.0000 0.16620  0.04090  0.56104  Biso   1.000  O
  O139     1.0000 0.33380  0.95910  0.06104  Biso   1.000  O
  O140     1.0000 0.83380  0.54090  0.93896  Biso   1.000  O
  O141     1.0000 0.52800  0.41230  0.48582  Biso   1.000  O
  O142     1.0000 0.02800  0.08770  0.51418  Biso   1.000  O
  O143     1.0000 0.47200  0.91230  0.01418  Biso   1.000  O
  O144     1.0000 0.97200  0.58770  0.98582  Biso   1.000  O
  O145     1.0000 0.38930  0.37370  0.43536  Biso   1.000  O
  O146     1.0000 0.88930  0.12630  0.56464  Biso   1.000  O
  O147     1.0000 0.61070  0.87370  0.06464  Biso   1.000  O
  O148     1.0000 0.11070  0.62630  0.93536  Biso   1.000  O
  O149     1.0000 0.44730  0.35860  0.35025  Biso   1.000  O
  O150     1.0000 0.94730  0.14140  0.64975  Biso   1.000  O
  O151     1.0000 0.55270  0.85860  0.14975  Biso   1.000  O
  O152     1.0000 0.05270  0.64140  0.85025  Biso   1.000  O
  O153     1.0000 0.51240  0.42430  0.69379  Biso   1.000  O
  O154     1.0000 0.01240  0.07570  0.30621  Biso   1.000  O
  O155     1.0000 0.48760  0.92430  0.80621  Biso   1.000  O
  O156     1.0000 0.98760  0.57570  0.19379  Biso   1.000  O
  O157     1.0000 0.44880  0.31300  0.72579  Biso   1.000  O
  O158     1.0000 0.94880  0.18700  0.27421  Biso   1.000  O
  O159     1.0000 0.55120  0.81300  0.77421  Biso   1.000  O
  O160     1.0000 0.05120  0.68700  0.22579  Biso   1.000  O
  O161     1.0000 0.44920  0.41260  0.59213  Biso   1.000  O
  O162     1.0000 0.94920  0.08740  0.40787  Biso   1.000  O
  O163     1.0000 0.55080  0.91260  0.90787  Biso   1.000  O
  O164     1.0000 0.05080  0.58740  0.09213  Biso   1.000  O
  O165     1.0000 0.30520  0.42760  0.68736  Biso   1.000  O
  O166     1.0000 0.80520  0.07240  0.31264  Biso   1.000  O
  O167     1.0000 0.69480  0.92760  0.81264  Biso   1.000  O
  O168     1.0000 0.19480  0.57240  0.18736  Biso   1.000  O
  H93      1.0000 0.25310  0.43460  0.69180  Biso   1.000  H
  H94      1.0000 0.75310  0.06540  0.30820  Biso   1.000  H
  H95      1.0000 0.74690  0.93460  0.80820  Biso   1.000  H
  H96      1.0000 0.24690  0.56540  0.19180  Biso   1.000  H
  O169     1.0000 0.30170  0.36850  0.54057  Biso   1.000  O
  O170     1.0000 0.80170  0.13150  0.45943  Biso   1.000  O
  O171     1.0000 0.69830  0.86850  0.95943  Biso   1.000  O
  O172     1.0000 0.19830  0.63150  0.04057  Biso   1.000  O
  O173     1.0000 0.22870  0.46120  0.58819  Biso   1.000  O
  O174     1.0000 0.72870  0.03880  0.41181  Biso   1.000  O
  O175     1.0000 0.77130  0.96120  0.91181  Biso   1.000  O
  O176     1.0000 0.27130  0.53880  0.08819  Biso   1.000  O
  O177     1.0000 0.38080  0.54940  0.49766  Biso   1.000  O
  O178     1.0000 0.88080  0.95060  0.50234  Biso   1.000  O
  O179     1.0000 0.61920  0.04940  0.00234  Biso   1.000  O
  O180     1.0000 0.11920  0.45060  0.99766  Biso   1.000  O
  H97      1.0000 0.35300  0.58600  0.51300  Biso   1.000  H
  H98      1.0000 0.85300  0.91400  0.48700  Biso   1.000  H
  H99      1.0000 0.64700  0.08600  0.98700  Biso   1.000  H
  H100     1.0000 0.14700  0.41400  0.01300  Biso   1.000  H
  H101     1.0000 0.42850  0.55500  0.51200  Biso   1.000  H
  H102     1.0000 0.92850  0.94500  0.48800  Biso   1.000  H
  H103     1.0000 0.57150  0.05500  0.98800  Biso   1.000  H
  H104     1.0000 0.07150  0.44500  0.01200  Biso   1.000  H
  Li1      1.0000 0.16850  0.69950  0.37520  Biso   1.000  Li
  Li2      1.0000 0.66850  0.80050  0.62480  Biso   1.000  Li
  Li3      1.0000 0.83150  0.19950  0.12480  Biso   1.000  Li
  Li4      1.0000 0.33150  0.30050  0.87520  Biso   1.000  Li
  Li5      1.0000 0.97010  0.70040  0.28810  Biso   1.000  Li
  Li6      1.0000 0.47010  0.79960  0.71190  Biso   1.000  Li
  Li7      1.0000 0.02990  0.20040  0.21190  Biso   1.000  Li
  Li8      1.0000 0.52990  0.29960  0.78810  Biso   1.000  Li
  Li9      1.0000 0.77970  0.31990  0.70850  Biso   1.000  Li
  Li10     1.0000 0.27970  0.18010  0.29150  Biso   1.000  Li
  Li11     1.0000 0.22030  0.81990  0.79150  Biso   1.000  Li
  Li12     1.0000 0.72030  0.68010  0.20850  Biso   1.000  Li
  Li13     1.0000 0.51620  0.30860  0.29300  Biso   1.000  Li
  Li14     1.0000 0.01620  0.19140  0.70700  Biso   1.000  Li
  Li15     1.0000 0.48380  0.80860  0.20700  Biso   1.000  Li
  Li16     1.0000 0.98380  0.69140  0.79300  Biso   1.000  Li
  Li17     1.0000 0.73430  0.66800  0.70740  Biso   1.000  Li
  Li18     1.0000 0.23430  0.83200  0.29260  Biso   1.000  Li
  Li19     1.0000 0.26570  0.16800  0.79260  Biso   1.000  Li
  Li20     1.0000 0.76570  0.33200  0.20740  Biso   1.000  Li
  O181     1.0000 0.79180  0.56490  0.70140  Biso   1.000  O
  O182     1.0000 0.29180  0.93510  0.29860  Biso   1.000  O
  O183     1.0000 0.20820  0.06490  0.79860  Biso   1.000  O
  O184     1.0000 0.70820  0.43510  0.20140  Biso   1.000  O
  H105     1.0000 0.76800  0.52100  0.70800  Biso   1.000  H
  H106     1.0000 0.26800  0.97900  0.29200  Biso   1.000  H
  H107     1.0000 0.23200  0.02100  0.79200  Biso   1.000  H
  H108     1.0000 0.73200  0.47900  0.20800  Biso   1.000  H
  H109     1.0000 0.83900  0.56000  0.71700  Biso   1.000  H
  H110     1.0000 0.33900  0.94000  0.28300  Biso   1.000  H
  H111     1.0000 0.16100  0.06000  0.78300  Biso   1.000  H
  H112     1.0000 0.66100  0.44000  0.21700  Biso   1.000  H
  O185     1.0000 0.66560  0.68090  0.77450  Biso   1.000  O
  O186     1.0000 0.16560  0.81910  0.22550  Biso   1.000  O
  O187     1.0000 0.33440  0.18090  0.72550  Biso   1.000  O
  O188     1.0000 0.83440  0.31910  0.27450  Biso   1.000  O
  H113     1.0000 0.69000  0.67500  0.80530  Biso   1.000  H
  H114     1.0000 0.19000  0.82500  0.19470  Biso   1.000  H
  H115     1.0000 0.31000  0.17500  0.69470  Biso   1.000  H
  H116     1.0000 0.81000  0.32500  0.30530  Biso   1.000  H
  H117     1.0000 0.62900  0.71500  0.78100  Biso   1.000  H
  H118     1.0000 0.12900  0.78500  0.21900  Biso   1.000  H
  H119     1.0000 0.37100  0.21500  0.71900  Biso   1.000  H
  H120     1.0000 0.87100  0.28500  0.28100  Biso   1.000  H
  O189     1.0000 0.82460  0.74720  0.69860  Biso   1.000  O
  O190     1.0000 0.32460  0.75280  0.30140  Biso   1.000  O
  O191     1.0000 0.17540  0.24720  0.80140  Biso   1.000  O
  O192     1.0000 0.67540  0.25280  0.19860  Biso   1.000  O
  H121     1.0000 0.86100  0.75800  0.72300  Biso   1.000  H
  H122     1.0000 0.36100  0.74200  0.27700  Biso   1.000  H
  H123     1.0000 0.13900  0.25800  0.77700  Biso   1.000  H
  H124     1.0000 0.63900  0.24200  0.22300  Biso   1.000  H
  H125     1.0000 0.85300  0.75100  0.66880  Biso   1.000  H
  H126     1.0000 0.35300  0.74900  0.33120  Biso   1.000  H
  H127     1.0000 0.14700  0.25100  0.83120  Biso   1.000  H
  H128     1.0000 0.64700  0.24900  0.16880  Biso   1.000  H
  O193     1.0000 0.85440  0.32900  0.77320  Biso   1.000  O
  O194     1.0000 0.35440  0.17100  0.22680  Biso   1.000  O
  O195     1.0000 0.14560  0.82900  0.72680  Biso   1.000  O
  O196     1.0000 0.64560  0.67100  0.27320  Biso   1.000  O
  H129     1.0000 0.82700  0.33600  0.80260  Biso   1.000  H
  H130     1.0000 0.32700  0.16400  0.19740  Biso   1.000  H
  H131     1.0000 0.17300  0.83600  0.69740  Biso   1.000  H
  H132     1.0000 0.67300  0.66400  0.30260  Biso   1.000  H
  H133     1.0000 0.88100  0.28600  0.77900  Biso   1.000  H
  H134     1.0000 0.38100  0.21400  0.22100  Biso   1.000  H
  H135     1.0000 0.11900  0.78600  0.72100  Biso   1.000  H
  H136     1.0000 0.61900  0.71400  0.27900  Biso   1.000  H
  O197     1.0000 0.70790  0.41620  0.69961  Biso   1.000  O
  O198     1.0000 0.20790  0.08380  0.30039  Biso   1.000  O
  O199     1.0000 0.29210  0.91620  0.80039  Biso   1.000  O
  O200     1.0000 0.79210  0.58380  0.19961  Biso   1.000  O
  H137     1.0000 0.66700  0.41900  0.72110  Biso   1.000  H
  H138     1.0000 0.16700  0.08100  0.27890  Biso   1.000  H
  H139     1.0000 0.33300  0.91900  0.77890  Biso   1.000  H
  H140     1.0000 0.83300  0.58100  0.22110  Biso   1.000  H
  H141     1.0000 0.68800  0.41400  0.66730  Biso   1.000  H
  H142     1.0000 0.18800  0.08600  0.33270  Biso   1.000  H
  H143     1.0000 0.31200  0.91400  0.83270  Biso   1.000  H
  H144     1.0000 0.81200  0.58600  0.16730  Biso   1.000  H
  O201     1.0000 0.93420  0.81060  0.26572  Biso   1.000  O
  O202     1.0000 0.43420  0.68940  0.73428  Biso   1.000  O
  O203     1.0000 0.06580  0.31060  0.23428  Biso   1.000  O
  O204     1.0000 0.56580  0.18940  0.76572  Biso   1.000  O
  H145     1.0000 0.92000  0.84600  0.28900  Biso   1.000  H
  H146     1.0000 0.42000  0.65400  0.71100  Biso   1.000  H
  H147     1.0000 0.08000  0.34600  0.21100  Biso   1.000  H
  H148     1.0000 0.58000  0.15400  0.78900  Biso   1.000  H
  H149     1.0000 0.96700  0.83200  0.24300  Biso   1.000  H
  H150     1.0000 0.46700  0.66800  0.75700  Biso   1.000  H
  H151     1.0000 0.03300  0.33200  0.25700  Biso   1.000  H
  H152     1.0000 0.53300  0.16800  0.74300  Biso   1.000  H
  O205     1.0000 0.70030  0.22170  0.69760  Biso   1.000  O
  O206     1.0000 0.20030  0.27830  0.30240  Biso   1.000  O
  O207     1.0000 0.29970  0.72170  0.80240  Biso   1.000  O
  O208     1.0000 0.79970  0.77830  0.19760  Biso   1.000  O
  Li21     1.0000 0.15450  0.44080  0.41670  Biso   1.000  Li
  Li22     1.0000 0.65450  0.05920  0.58330  Biso   1.000  Li
  Li23     1.0000 0.84550  0.94080  0.08330  Biso   1.000  Li
  Li24     1.0000 0.34550  0.55920  0.91670  Biso   1.000  Li
  O209     1.0000 0.22550  0.34150  0.40210  Biso   1.000  O
  O210     1.0000 0.72550  0.15850  0.59790  Biso   1.000  O
  O211     1.0000 0.77450  0.84150  0.09790  Biso   1.000  O
  O212     1.0000 0.27450  0.65850  0.90210  Biso   1.000  O
  O213     1.0000 0.24270  0.50930  0.37440  Biso   1.000  O
  O214     1.0000 0.74270  0.99070  0.62560  Biso   1.000  O
  O215     1.0000 0.75730  0.00930  0.12560  Biso   1.000  O
  O216     1.0000 0.25730  0.49070  0.87440  Biso   1.000  O
  O217     1.0000 0.04550  0.41530  0.38140  Biso   1.000  O
  O218     1.0000 0.54550  0.08470  0.61860  Biso   1.000  O
  O219     1.0000 0.95450  0.91530  0.11860  Biso   1.000  O
  O220     1.0000 0.45450  0.58470  0.88140  Biso   1.000  O
  Li25     1.0000 0.34510  0.56980  0.41920  Biso   1.000  Li
  Li26     1.0000 0.84510  0.93020  0.58080  Biso   1.000  Li
  Li27     1.0000 0.65490  0.06980  0.08080  Biso   1.000  Li
  Li28     1.0000 0.15490  0.43020  0.91920  Biso   1.000  Li
  O221     1.0000 0.26820  0.66970  0.42942  Biso   1.000  O
  O222     1.0000 0.76820  0.83030  0.57058  Biso   1.000  O
  O223     1.0000 0.73180  0.16970  0.07058  Biso   1.000  O
  O224     1.0000 0.23180  0.33030  0.92942  Biso   1.000  O
  H153     1.0000 0.31000  0.70000  0.42900  Biso   1.000  H
  H154     1.0000 0.81000  0.80000  0.57100  Biso   1.000  H
  H155     1.0000 0.69000  0.20000  0.07100  Biso   1.000  H
  H156     1.0000 0.19000  0.30000  0.92900  Biso   1.000  H
  H157     1.0000 0.24700  0.67500  0.46130  Biso   1.000  H
  H158     1.0000 0.74700  0.82500  0.53870  Biso   1.000  H
  H159     1.0000 0.75300  0.17500  0.03870  Biso   1.000  H
  H160     1.0000 0.25300  0.32500  0.96130  Biso   1.000  H
  O225     1.0000 0.44450  0.59140  0.37750  Biso   1.000  O
  O226     1.0000 0.94450  0.90860  0.62250  Biso   1.000  O
  O227     1.0000 0.55550  0.09140  0.12250  Biso   1.000  O
  O228     1.0000 0.05550  0.40860  0.87750  Biso   1.000  O
  H161     1.0000 0.48700  0.61300  0.39100  Biso   1.000  H
  H162     1.0000 0.98700  0.88700  0.60900  Biso   1.000  H
  H163     1.0000 0.51300  0.11300  0.10900  Biso   1.000  H
  H164     1.0000 0.01300  0.38700  0.89100  Biso   1.000  H
  H165     1.0000 0.45100  0.59500  0.34260  Biso   1.000  H
  H166     1.0000 0.95100  0.90500  0.65740  Biso   1.000  H
  H167     1.0000 0.54900  0.09500  0.15740  Biso   1.000  H
  H168     1.0000 0.04900  0.40500  0.84260  Biso   1.000  H
  O229     1.0000 0.18880  0.63270  0.30810  Biso   1.000  O
  O230     1.0000 0.68880  0.86730  0.69190  Biso   1.000  O
  O231     1.0000 0.81120  0.13270  0.19190  Biso   1.000  O
  O232     1.0000 0.31120  0.36730  0.80810  Biso   1.000  O
  H169     1.0000 0.21000  0.59000  0.31800  Biso   1.000  H
  H170     1.0000 0.71000  0.91000  0.68200  Biso   1.000  H
  H171     1.0000 0.79000  0.09000  0.18200  Biso   1.000  H
  H172     1.0000 0.29000  0.41000  0.81800  Biso   1.000  H
  H173     1.0000 0.18100  0.62800  0.27370  Biso   1.000  H
  H174     1.0000 0.68100  0.87200  0.72630  Biso   1.000  H
  H175     1.0000 0.81900  0.12800  0.22630  Biso   1.000  H
  H176     1.0000 0.31900  0.37200  0.77370  Biso   1.000  H
  O233     1.0000 0.60950  0.27650  0.57660  Biso   1.000  O
  O234     1.0000 0.10950  0.22350  0.42340  Biso   1.000  O
  O235     1.0000 0.39050  0.77650  0.92340  Biso   1.000  O
  O236     1.0000 0.89050  0.72350  0.07660  Biso   1.000  O
  O237     1.0000 0.38950  0.77770  0.40901  Biso   1.000  O
  O238     1.0000 0.88950  0.72230  0.59099  Biso   1.000  O
  O239     1.0000 0.61050  0.27770  0.09099  Biso   1.000  O
  O240     1.0000 0.11050  0.22230  0.90901  Biso   1.000  O
  H177     1.0000 0.38000  0.82370  0.42100  Biso   1.000  H
  H178     1.0000 0.88000  0.67630  0.57900  Biso   1.000  H
  H179     1.0000 0.62000  0.32370  0.07900  Biso   1.000  H
  H180     1.0000 0.12000  0.17630  0.92100  Biso   1.000  H
  H181     1.0000 0.43400  0.76300  0.42400  Biso   1.000  H
  H182     1.0000 0.93400  0.73700  0.57600  Biso   1.000  H
  H183     1.0000 0.56600  0.26300  0.07600  Biso   1.000  H
  H184     1.0000 0.06600  0.23700  0.92400  Biso   1.000  H
  O241     1.0000 0.51380  0.54630  0.27750  Biso   1.000  O
  O242     1.0000 0.01380  0.95370  0.72250  Biso   1.000  O
  O243     1.0000 0.48620  0.04630  0.22250  Biso   1.000  O
  O244     1.0000 0.98620  0.45370  0.77750  Biso   1.000  O
  H185     1.0000 0.53500  0.50400  0.26600  Biso   1.000  H
  H186     1.0000 0.03500  0.99600  0.73400  Biso   1.000  H
  H187     1.0000 0.46500  0.00400  0.23400  Biso   1.000  H
  H188     1.0000 0.96500  0.49600  0.76600  Biso   1.000  H
  H189     1.0000 0.53700  0.58200  0.25900  Biso   1.000  H
  H190     1.0000 0.03700  0.91800  0.74100  Biso   1.000  H
  H191     1.0000 0.46300  0.08200  0.24100  Biso   1.000  H
  H192     1.0000 0.96300  0.41800  0.75900  Biso   1.000  H
  O245     1.0000 0.31120  0.41160  0.28660  Biso   1.000  O
  O246     1.0000 0.81120  0.08840  0.71340  Biso   1.000  O
  O247     1.0000 0.68880  0.91160  0.21340  Biso   1.000  O
  O248     1.0000 0.18880  0.58840  0.78660  Biso   1.000  O
  H193     1.0000 0.35300  0.39600  0.30500  Biso   1.000  H
  H194     1.0000 0.85300  0.10400  0.69500  Biso   1.000  H
  H195     1.0000 0.64700  0.89600  0.19500  Biso   1.000  H
  H196     1.0000 0.14700  0.60400  0.80500  Biso   1.000  H
  H197     1.0000 0.31900  0.46200  0.28600  Biso   1.000  H
  H198     1.0000 0.81900  0.03800  0.71400  Biso   1.000  H
  H199     1.0000 0.68100  0.96200  0.21400  Biso   1.000  H
  H200     1.0000 0.18100  0.53800  0.78600  Biso   1.000  H
  O249     1.0000 0.53750  0.55290  0.78200  Biso   1.000  O
  O250     1.0000 0.03750  0.94710  0.21800  Biso   1.000  O
  O251     1.0000 0.46250  0.05290  0.71800  Biso   1.000  O
  O252     1.0000 0.96250  0.44710  0.28200  Biso   1.000  O
  H201     1.0000 0.50700  0.51700  0.79900  Biso   1.000  H
  H202     1.0000 0.00700  0.98300  0.20100  Biso   1.000  H
  H203     1.0000 0.49300  0.01700  0.70100  Biso   1.000  H
  H204     1.0000 0.99300  0.48300  0.29900  Biso   1.000  H
  H205     1.0000 0.58600  0.53200  0.78100  Biso   1.000  H
  H206     1.0000 0.08600  0.96800  0.21900  Biso   1.000  H
  H207     1.0000 0.41400  0.03200  0.71900  Biso   1.000  H
  H208     1.0000 0.91400  0.46800  0.28100  Biso   1.000  H
  N5       1.0000 0.09510  0.33610  0.67900  Biso   1.000  N
  N6       1.0000 0.59510  0.16390  0.32100  Biso   1.000  N
  N7       1.0000 0.90490  0.83610  0.82100  Biso   1.000  N
  N8       1.0000 0.40490  0.66390  0.17900  Biso   1.000  N
  O253     1.0000 0.05600  0.29930  0.72000  Biso   1.000  O
  O254     1.0000 0.55600  0.20070  0.28000  Biso   1.000  O
  O255     1.0000 0.94400  0.79930  0.78000  Biso   1.000  O
  O256     1.0000 0.44400  0.70070  0.22000  Biso   1.000  O
  O257     1.0000 0.11010  0.31150  0.63120  Biso   1.000  O
  O258     1.0000 0.61010  0.18850  0.36880  Biso   1.000  O
  O259     1.0000 0.88990  0.81150  0.86880  Biso   1.000  O
  O260     1.0000 0.38990  0.68850  0.13120  Biso   1.000  O
  O261     1.0000 0.13210  0.41100  0.70940  Biso   1.000  O
  O262     1.0000 0.63210  0.08900  0.29060  Biso   1.000  O
  O263     1.0000 0.86790  0.91100  0.79060  Biso   1.000  O
  O264     1.0000 0.36790  0.58900  0.20940  Biso   1.000  O
  Li29     1.0000 0.64040  0.18880  0.62220  Biso   1.000  Li
  Li30     1.0000 0.14040  0.31120  0.37780  Biso   1.000  Li
  Li31     1.0000 0.35960  0.68880  0.87780  Biso   1.000  Li
  Li32     1.0000 0.85960  0.81120  0.12220  Biso   1.000  Li
  O265     1.0000 0.72740  0.21630  0.71500  Biso   1.000  O
  O266     1.0000 0.22740  0.28370  0.28500  Biso   1.000  O
  O267     1.0000 0.27260  0.71630  0.78500  Biso   1.000  O
  O268     1.0000 0.77260  0.78370  0.21500  Biso   1.000  O
  O269     1.0000 0.20790  0.38620  0.42020  Biso   1.000  O
  O270     1.0000 0.70790  0.11380  0.57980  Biso   1.000  O
  O271     1.0000 0.79210  0.88620  0.07980  Biso   1.000  O
  O272     1.0000 0.29210  0.61380  0.92020  Biso   1.000  O
  O273     1.0000 0.28390  0.51620  0.36210  Biso   1.000  O
  O274     1.0000 0.78390  0.98380  0.63790  Biso   1.000  O
  O275     1.0000 0.71610  0.01620  0.13790  Biso   1.000  O
  O276     1.0000 0.21610  0.48380  0.86210  Biso   1.000  O
  O277     1.0000 0.61960  0.27440  0.55940  Biso   1.000  O
  O278     1.0000 0.11960  0.22560  0.44060  Biso   1.000  O
  O279     1.0000 0.38040  0.77440  0.94060  Biso   1.000  O
  O280     1.0000 0.88040  0.72560  0.05940  Biso   1.000  O
  O281     1.0000 0.02570  0.36160  0.35560  Biso   1.000  O
  O282     1.0000 0.52570  0.13840  0.64440  Biso   1.000  O
  O283     1.0000 0.97430  0.86160  0.14440  Biso   1.000  O
  O284     1.0000 0.47430  0.63840  0.85560  Biso   1.000  O
