data_image0
_cell_length_a       5.509
_cell_length_b       10.545
_cell_length_c       29.399
_cell_angle_alpha    90
_cell_angle_beta     90
_cell_angle_gamma    90

_symmetry_space_group_name_H-M    "P 1"
_symmetry_int_tables_number       1

loop_
  _symmetry_equiv_pos_as_xyz
  'x, y, z'

loop_
  _atom_site_label
  _atom_site_occupancy
  _atom_site_fract_x
  _atom_site_fract_y
  _atom_site_fract_z
  _atom_site_thermal_displace_type
  _atom_site_B_iso_or_equiv
  _atom_site_type_symbol
  Cu1      1.0000 0.76830  0.01373  0.23763  Biso   1.000  Cu
  Cu2      1.0000 0.73170  0.98627  0.73763  Biso   1.000  Cu
  Cu3      1.0000 0.23170  0.51373  0.26237  Biso   1.000  Cu
  Cu4      1.0000 0.26830  0.48627  0.76237  Biso   1.000  Cu
  S1       1.0000 0.82560  0.04178  0.98751  Biso   1.000  S
  S2       1.0000 0.67440  0.95822  0.48751  Biso   1.000  S
  S3       1.0000 0.17440  0.54178  0.51249  Biso   1.000  S
  S4       1.0000 0.32560  0.45822  0.01249  Biso   1.000  S
  N1       1.0000 0.73800  0.05460  0.17073  Biso   1.000  N
  N2       1.0000 0.76200  0.94540  0.67073  Biso   1.000  N
  N3       1.0000 0.26200  0.55460  0.32927  Biso   1.000  N
  N4       1.0000 0.23800  0.44540  0.82927  Biso   1.000  N
  N5       1.0000 0.42150  0.13700  0.01103  Biso   1.000  N
  N6       1.0000 0.07850  0.86300  0.51103  Biso   1.000  N
  N7       1.0000 0.57850  0.63700  0.48897  Biso   1.000  N
  N8       1.0000 0.92150  0.36300  0.98897  Biso   1.000  N
  N9       1.0000 0.41810  0.13590  0.96446  Biso   1.000  N
  N10      1.0000 0.08190  0.86410  0.46446  Biso   1.000  N
  N11      1.0000 0.58190  0.63590  0.53554  Biso   1.000  N
  N12      1.0000 0.91810  0.36410  0.03554  Biso   1.000  N
  N13      1.0000 0.70080  0.03510  0.80445  Biso   1.000  N
  N14      1.0000 0.79920  0.96490  0.30445  Biso   1.000  N
  N15      1.0000 0.29920  0.53510  0.69555  Biso   1.000  N
  N16      1.0000 0.20080  0.46490  0.19555  Biso   1.000  N
  C1       1.0000 0.53960  0.11410  0.15442  Biso   1.000  C
  C2       1.0000 0.96040  0.88590  0.65442  Biso   1.000  C
  C3       1.0000 0.46040  0.61410  0.34558  Biso   1.000  C
  C4       1.0000 0.03960  0.38590  0.84558  Biso   1.000  C
  H1       1.0000 0.42560  0.14530  0.17490  Biso   1.000  H
  H2       1.0000 0.07440  0.85470  0.67490  Biso   1.000  H
  H3       1.0000 0.57440  0.64530  0.32510  Biso   1.000  H
  H4       1.0000 0.92560  0.35470  0.82510  Biso   1.000  H
  C5       1.0000 0.49890  0.13060  0.10813  Biso   1.000  C
  C6       1.0000 0.00110  0.86940  0.60813  Biso   1.000  C
  C7       1.0000 0.50110  0.63060  0.39187  Biso   1.000  C
  C8       1.0000 0.99890  0.36940  0.89187  Biso   1.000  C
  H5       1.0000 0.36060  0.17250  0.09800  Biso   1.000  H
  H6       1.0000 0.13940  0.82750  0.59800  Biso   1.000  H
  H7       1.0000 0.63940  0.67250  0.40200  Biso   1.000  H
  H8       1.0000 0.86060  0.32750  0.90200  Biso   1.000  H
  C9       1.0000 0.66710  0.08360  0.07711  Biso   1.000  C
  C10      1.0000 0.83290  0.91640  0.57711  Biso   1.000  C
  C11      1.0000 0.33290  0.58360  0.42289  Biso   1.000  C
  C12      1.0000 0.16710  0.41640  0.92289  Biso   1.000  C
  C13      1.0000 0.87590  0.02660  0.09423  Biso   1.000  C
  C14      1.0000 0.62410  0.97340  0.59423  Biso   1.000  C
  C15      1.0000 0.12410  0.52660  0.40577  Biso   1.000  C
  C16      1.0000 0.37590  0.47340  0.90577  Biso   1.000  C
  H9       1.0000 0.99520  0.99690  0.07450  Biso   1.000  H
  H10      1.0000 0.50480  0.00310  0.57450  Biso   1.000  H
  H11      1.0000 0.00480  0.49690  0.42550  Biso   1.000  H
  H12      1.0000 0.49520  0.50310  0.92550  Biso   1.000  H
  C17      1.0000 0.90450  0.01460  0.14075  Biso   1.000  C
  C18      1.0000 0.59550  0.98540  0.64075  Biso   1.000  C
  C19      1.0000 0.09550  0.51460  0.35925  Biso   1.000  C
  C20      1.0000 0.40450  0.48540  0.85925  Biso   1.000  C
  H13      1.0000 0.04560  0.97710  0.15170  Biso   1.000  H
  H14      1.0000 0.45440  0.02290  0.65170  Biso   1.000  H
  H15      1.0000 0.95440  0.47710  0.34830  Biso   1.000  H
  H16      1.0000 0.54560  0.52290  0.84830  Biso   1.000  H
  C21      1.0000 0.62260  0.09270  0.02764  Biso   1.000  C
  C22      1.0000 0.87740  0.90730  0.52764  Biso   1.000  C
  C23      1.0000 0.37740  0.59270  0.47236  Biso   1.000  C
  C24      1.0000 0.12260  0.40730  0.97236  Biso   1.000  C
  C25      1.0000 0.61710  0.08820  0.94740  Biso   1.000  C
  C26      1.0000 0.88290  0.91180  0.44740  Biso   1.000  C
  C27      1.0000 0.38290  0.58820  0.55260  Biso   1.000  C
  C28      1.0000 0.11710  0.41180  0.05260  Biso   1.000  C
  C29      1.0000 0.65290  0.07280  0.89783  Biso   1.000  C
  C30      1.0000 0.84710  0.92720  0.39783  Biso   1.000  C
  C31      1.0000 0.34710  0.57280  0.60217  Biso   1.000  C
  C32      1.0000 0.15290  0.42720  0.10217  Biso   1.000  C
  C33      1.0000 0.48140  0.11850  0.86781  Biso   1.000  C
  C34      1.0000 0.01860  0.88150  0.36781  Biso   1.000  C
  C35      1.0000 0.51860  0.61850  0.63219  Biso   1.000  C
  C36      1.0000 0.98140  0.38150  0.13219  Biso   1.000  C
  H17      1.0000 0.34840  0.16400  0.87840  Biso   1.000  H
  H18      1.0000 0.15160  0.83600  0.37840  Biso   1.000  H
  H19      1.0000 0.65160  0.66400  0.62160  Biso   1.000  H
  H20      1.0000 0.84840  0.33600  0.12160  Biso   1.000  H
  C37      1.0000 0.50910  0.09610  0.82204  Biso   1.000  C
  C38      1.0000 0.99090  0.90390  0.32204  Biso   1.000  C
  C39      1.0000 0.49090  0.59610  0.67796  Biso   1.000  C
  C40      1.0000 0.00910  0.40390  0.17796  Biso   1.000  C
  H21      1.0000 0.38890  0.12470  0.80230  Biso   1.000  H
  H22      1.0000 0.11110  0.87530  0.30230  Biso   1.000  H
  H23      1.0000 0.61110  0.62470  0.69770  Biso   1.000  H
  H24      1.0000 0.88890  0.37530  0.19770  Biso   1.000  H
  C41      1.0000 0.87470  0.99470  0.83350  Biso   1.000  C
  C42      1.0000 0.62530  0.00530  0.33350  Biso   1.000  C
  C43      1.0000 0.12530  0.49470  0.66650  Biso   1.000  C
  C44      1.0000 0.37470  0.50530  0.16650  Biso   1.000  C
  H25      1.0000 0.01050  0.95350  0.82190  Biso   1.000  H
  H26      1.0000 0.48950  0.04650  0.32190  Biso   1.000  H
  H27      1.0000 0.98950  0.45350  0.67810  Biso   1.000  H
  H28      1.0000 0.51050  0.54650  0.17810  Biso   1.000  H
  C45      1.0000 0.85620  0.01290  0.88022  Biso   1.000  C
  C46      1.0000 0.64380  0.98710  0.38022  Biso   1.000  C
  C47      1.0000 0.14380  0.51290  0.61978  Biso   1.000  C
  C48      1.0000 0.35620  0.48710  0.11978  Biso   1.000  C
  H29      1.0000 0.97910  0.98520  0.89950  Biso   1.000  H
  H30      1.0000 0.52090  0.01480  0.39950  Biso   1.000  H
  H31      1.0000 0.02090  0.48520  0.60050  Biso   1.000  H
  H32      1.0000 0.47910  0.51480  0.10050  Biso   1.000  H
  S5       1.0000 0.34050  0.81890  0.21621  Biso   1.000  S
  S6       1.0000 0.15950  0.18110  0.71621  Biso   1.000  S
  S7       1.0000 0.65950  0.31890  0.28379  Biso   1.000  S
  S8       1.0000 0.84050  0.68110  0.78379  Biso   1.000  S
  O1       1.0000 0.43930  0.93870  0.23745  Biso   1.000  O
  O2       1.0000 0.06070  0.06130  0.73745  Biso   1.000  O
  O3       1.0000 0.56070  0.43870  0.26255  Biso   1.000  O
  O4       1.0000 0.93930  0.56130  0.76255  Biso   1.000  O
  O5       1.0000 0.41540  0.81280  0.16861  Biso   1.000  O
  O6       1.0000 0.08460  0.18720  0.66861  Biso   1.000  O
  O7       1.0000 0.58460  0.31280  0.33139  Biso   1.000  O
  O8       1.0000 0.91540  0.68720  0.83139  Biso   1.000  O
  O9       1.0000 0.07370  0.82920  0.21975  Biso   1.000  O
  O10      1.0000 0.42630  0.17080  0.71975  Biso   1.000  O
  O11      1.0000 0.92630  0.32920  0.28025  Biso   1.000  O
  O12      1.0000 0.57370  0.67080  0.78025  Biso   1.000  O
  O13      1.0000 0.42760  0.70940  0.24318  Biso   1.000  O
  O14      1.0000 0.07240  0.29060  0.74318  Biso   1.000  O
  O15      1.0000 0.57240  0.20940  0.25682  Biso   1.000  O
  O16      1.0000 0.92760  0.79060  0.75682  Biso   1.000  O
  O17      1.0000 0.07450  0.11240  0.23860  Biso   1.000  O
  O18      1.0000 0.42550  0.88760  0.73860  Biso   1.000  O
  O19      1.0000 0.92550  0.61240  0.26140  Biso   1.000  O
  O20      1.0000 0.57450  0.38760  0.76140  Biso   1.000  O
  O21      1.0000 0.84270  0.69980  0.13670  Biso   1.000  O
  O22      1.0000 0.65730  0.30020  0.63670  Biso   1.000  O
  O23      1.0000 0.15730  0.19980  0.36330  Biso   1.000  O
  O24      1.0000 0.34270  0.80020  0.86330  Biso   1.000  O
  O25      1.0000 0.31200  0.78300  0.06700  Biso   1.000  O
  O26      1.0000 0.18800  0.21700  0.56700  Biso   1.000  O
  O27      1.0000 0.68800  0.28300  0.43300  Biso   1.000  O
  O28      1.0000 0.81200  0.71700  0.93300  Biso   1.000  O
  O29      1.0000 0.29600  0.82100  0.05500  Biso   1.000  O
  O30      1.0000 0.20400  0.17900  0.55500  Biso   1.000  O
  O31      1.0000 0.70400  0.32100  0.44500  Biso   1.000  O
  O32      1.0000 0.79600  0.67900  0.94500  Biso   1.000  O
  O33      1.0000 0.38200  0.78900  0.95400  Biso   1.000  O
  O34      1.0000 0.11800  0.21100  0.45400  Biso   1.000  O
  O35      1.0000 0.61800  0.28900  0.54600  Biso   1.000  O
  O36      1.0000 0.88200  0.71100  0.04600  Biso   1.000  O
  O37      1.0000 0.20800  0.78100  0.95380  Biso   1.000  O
  O38      1.0000 0.29200  0.21900  0.45380  Biso   1.000  O
  O39      1.0000 0.79200  0.28100  0.54620  Biso   1.000  O
  O40      1.0000 0.70800  0.71900  0.04620  Biso   1.000  O
