data_image0
_cell_length_a       32.749
_cell_length_b       32.749
_cell_length_c       32.749
_cell_angle_alpha    90
_cell_angle_beta     90
_cell_angle_gamma    90

_symmetry_space_group_name_H-M    "P 1"
_symmetry_int_tables_number       1

loop_
  _symmetry_equiv_pos_as_xyz
  'x, y, z'

loop_
  _atom_site_label
  _atom_site_occupancy
  _atom_site_fract_x
  _atom_site_fract_y
  _atom_site_fract_z
  _atom_site_thermal_displace_type
  _atom_site_B_iso_or_equiv
  _atom_site_type_symbol
  Au1      1.0000 0.34797  0.99657  0.52165  Biso   1.000  Au
  Au2      1.0000 0.52165  0.34797  0.99657  Biso   1.000  Au
  Au3      1.0000 0.99657  0.52165  0.34797  Biso   1.000  Au
  Au4      1.0000 0.84797  0.50343  0.47835  Biso   1.000  Au
  Au5      1.0000 0.02165  0.15203  0.00343  Biso   1.000  Au
  Au6      1.0000 0.49657  0.97835  0.65203  Biso   1.000  Au
  Au7      1.0000 0.65203  0.49657  0.97835  Biso   1.000  Au
  Au8      1.0000 0.47835  0.84797  0.50343  Biso   1.000  Au
  Au9      1.0000 0.00343  0.02165  0.15203  Biso   1.000  Au
  Au10     1.0000 0.15203  0.00343  0.02165  Biso   1.000  Au
  Au11     1.0000 0.97835  0.65203  0.49657  Biso   1.000  Au
  Au12     1.0000 0.50343  0.47835  0.84797  Biso   1.000  Au
  Au13     1.0000 0.41875  0.06230  0.57131  Biso   1.000  Au
  Au14     1.0000 0.57131  0.41875  0.06230  Biso   1.000  Au
  Au15     1.0000 0.06230  0.57131  0.41875  Biso   1.000  Au
  Au16     1.0000 0.91875  0.43770  0.42869  Biso   1.000  Au
  Au17     1.0000 0.07131  0.08125  0.93770  Biso   1.000  Au
  Au18     1.0000 0.56230  0.92869  0.58125  Biso   1.000  Au
  Au19     1.0000 0.58125  0.56230  0.92869  Biso   1.000  Au
  Au20     1.0000 0.42869  0.91875  0.43770  Biso   1.000  Au
  Au21     1.0000 0.93770  0.07131  0.08125  Biso   1.000  Au
  Au22     1.0000 0.08125  0.93770  0.07131  Biso   1.000  Au
  Au23     1.0000 0.92869  0.58125  0.56230  Biso   1.000  Au
  Au24     1.0000 0.43770  0.42869  0.91875  Biso   1.000  Au
  Au25     1.0000 0.05554  0.00613  0.59969  Biso   1.000  Au
  Au26     1.0000 0.59969  0.05554  0.00613  Biso   1.000  Au
  Au27     1.0000 0.00613  0.59969  0.05554  Biso   1.000  Au
  Au28     1.0000 0.55554  0.49387  0.40031  Biso   1.000  Au
  Au29     1.0000 0.09969  0.44446  0.99387  Biso   1.000  Au
  Au30     1.0000 0.50613  0.90031  0.94446  Biso   1.000  Au
  Au31     1.0000 0.94446  0.50613  0.90031  Biso   1.000  Au
  Au32     1.0000 0.40031  0.55554  0.49387  Biso   1.000  Au
  Au33     1.0000 0.99387  0.09969  0.44446  Biso   1.000  Au
  Au34     1.0000 0.44446  0.99387  0.09969  Biso   1.000  Au
  Au35     1.0000 0.90031  0.94446  0.50613  Biso   1.000  Au
  Au36     1.0000 0.49387  0.40031  0.55554  Biso   1.000  Au
  Au37     1.0000 0.04397  0.11043  0.57455  Biso   1.000  Au
  Au38     1.0000 0.57455  0.04397  0.11043  Biso   1.000  Au
  Au39     1.0000 0.11043  0.57455  0.04397  Biso   1.000  Au
  Au40     1.0000 0.54397  0.38957  0.42545  Biso   1.000  Au
  Au41     1.0000 0.07455  0.45603  0.88957  Biso   1.000  Au
  Au42     1.0000 0.61043  0.92545  0.95603  Biso   1.000  Au
  Au43     1.0000 0.95603  0.61043  0.92545  Biso   1.000  Au
  Au44     1.0000 0.42545  0.54397  0.38957  Biso   1.000  Au
  Au45     1.0000 0.88957  0.07455  0.45603  Biso   1.000  Au
  Au46     1.0000 0.45603  0.88957  0.07455  Biso   1.000  Au
  Au47     1.0000 0.92545  0.95603  0.61043  Biso   1.000  Au
  Au48     1.0000 0.38957  0.42545  0.54397  Biso   1.000  Au
  Ag1      1.0000 0.33264  0.08223  0.54810  Biso   1.000  Ag
  Ag2      1.0000 0.54810  0.33264  0.08223  Biso   1.000  Ag
  Ag3      1.0000 0.08223  0.54810  0.33264  Biso   1.000  Ag
  Ag4      1.0000 0.83264  0.41777  0.45190  Biso   1.000  Ag
  Ag5      1.0000 0.04810  0.16736  0.91777  Biso   1.000  Ag
  Ag6      1.0000 0.58223  0.95190  0.66736  Biso   1.000  Ag
  Ag7      1.0000 0.66736  0.58223  0.95190  Biso   1.000  Ag
  Ag8      1.0000 0.45190  0.83264  0.41777  Biso   1.000  Ag
  Ag9      1.0000 0.91777  0.04810  0.16736  Biso   1.000  Ag
  Ag10     1.0000 0.16736  0.91777  0.04810  Biso   1.000  Ag
  Ag11     1.0000 0.95190  0.66736  0.58223  Biso   1.000  Ag
  Ag12     1.0000 0.41777  0.45190  0.83264  Biso   1.000  Ag
  Ag13     1.0000 0.42204  0.00949  0.47605  Biso   1.000  Ag
  Ag14     1.0000 0.47605  0.42204  0.00949  Biso   1.000  Ag
  Ag15     1.0000 0.00949  0.47605  0.42204  Biso   1.000  Ag
  Ag16     1.0000 0.92204  0.49051  0.52395  Biso   1.000  Ag
  Ag17     1.0000 0.97605  0.07796  0.99051  Biso   1.000  Ag
  Ag18     1.0000 0.50949  0.02395  0.57796  Biso   1.000  Ag
  Ag19     1.0000 0.57796  0.50949  0.02395  Biso   1.000  Ag
  Ag20     1.0000 0.52395  0.92204  0.49051  Biso   1.000  Ag
  Ag21     1.0000 0.99051  0.97605  0.07796  Biso   1.000  Ag
  Ag22     1.0000 0.07796  0.99051  0.97605  Biso   1.000  Ag
  Ag23     1.0000 0.02395  0.57796  0.50949  Biso   1.000  Ag
  Ag24     1.0000 0.49051  0.52395  0.92204  Biso   1.000  Ag
  Ag25     1.0000 0.40430  0.98768  0.61674  Biso   1.000  Ag
  Ag26     1.0000 0.61674  0.40430  0.98768  Biso   1.000  Ag
  Ag27     1.0000 0.98768  0.61674  0.40430  Biso   1.000  Ag
  Ag28     1.0000 0.90430  0.51232  0.38326  Biso   1.000  Ag
  Ag29     1.0000 0.11674  0.09570  0.01232  Biso   1.000  Ag
  Ag30     1.0000 0.48768  0.88326  0.59570  Biso   1.000  Ag
  Ag31     1.0000 0.59570  0.48768  0.88326  Biso   1.000  Ag
  Ag32     1.0000 0.38326  0.90430  0.51232  Biso   1.000  Ag
  Ag33     1.0000 0.01232  0.11674  0.09570  Biso   1.000  Ag
  Ag34     1.0000 0.09570  0.01232  0.11674  Biso   1.000  Ag
  Ag35     1.0000 0.88326  0.59570  0.48768  Biso   1.000  Ag
  Ag36     1.0000 0.51232  0.38326  0.90430  Biso   1.000  Ag
  Ag37     1.0000 0.10963  0.07415  0.62699  Biso   1.000  Ag
  Ag38     1.0000 0.62699  0.10963  0.07415  Biso   1.000  Ag
  Ag39     1.0000 0.07415  0.62699  0.10963  Biso   1.000  Ag
  Ag40     1.0000 0.60963  0.42585  0.37301  Biso   1.000  Ag
  Ag41     1.0000 0.12699  0.39037  0.92585  Biso   1.000  Ag
  Ag42     1.0000 0.57415  0.87301  0.89037  Biso   1.000  Ag
  Ag43     1.0000 0.89037  0.57415  0.87301  Biso   1.000  Ag
  Ag44     1.0000 0.37301  0.60963  0.42585  Biso   1.000  Ag
  Ag45     1.0000 0.92585  0.12699  0.39037  Biso   1.000  Ag
  Ag46     1.0000 0.39037  0.92585  0.12699  Biso   1.000  Ag
  Ag47     1.0000 0.87301  0.89037  0.57415  Biso   1.000  Ag
  Ag48     1.0000 0.42585  0.37301  0.60963  Biso   1.000  Ag
  Ag49     1.0000 0.97626  0.03763  0.62628  Biso   1.000  Ag
  Ag50     1.0000 0.62628  0.97626  0.03763  Biso   1.000  Ag
  Ag51     1.0000 0.03763  0.62628  0.97626  Biso   1.000  Ag
  Ag52     1.0000 0.47626  0.46237  0.37372  Biso   1.000  Ag
  Ag53     1.0000 0.12628  0.52374  0.96237  Biso   1.000  Ag
  Ag54     1.0000 0.53763  0.87372  0.02374  Biso   1.000  Ag
  Ag55     1.0000 0.02374  0.53763  0.87372  Biso   1.000  Ag
  Ag56     1.0000 0.37372  0.47626  0.46237  Biso   1.000  Ag
  Ag57     1.0000 0.96237  0.12628  0.52374  Biso   1.000  Ag
  Ag58     1.0000 0.52374  0.96237  0.12628  Biso   1.000  Ag
  Ag59     1.0000 0.87372  0.02374  0.53763  Biso   1.000  Ag
  Ag60     1.0000 0.46237  0.37372  0.47626  Biso   1.000  Ag
  Ag61     1.0000 0.05701  0.05794  0.50362  Biso   1.000  Ag
  Ag62     1.0000 0.50362  0.05701  0.05794  Biso   1.000  Ag
  Ag63     1.0000 0.05794  0.50362  0.05701  Biso   1.000  Ag
  Ag64     1.0000 0.55701  0.44206  0.49638  Biso   1.000  Ag
  Ag65     1.0000 0.00362  0.44299  0.94206  Biso   1.000  Ag
  Ag66     1.0000 0.55794  0.99638  0.94299  Biso   1.000  Ag
  Ag67     1.0000 0.94299  0.55794  0.99638  Biso   1.000  Ag
  Ag68     1.0000 0.49638  0.55701  0.44206  Biso   1.000  Ag
  Ag69     1.0000 0.94206  0.00362  0.44299  Biso   1.000  Ag
  Ag70     1.0000 0.44299  0.94206  0.00362  Biso   1.000  Ag
  Ag71     1.0000 0.99638  0.94299  0.55794  Biso   1.000  Ag
  Ag72     1.0000 0.44206  0.49638  0.55701  Biso   1.000  Ag
  Cu1      1.0000 0.38951  0.13320  0.44933  Biso   1.000  Cu
  Cu2      1.0000 0.44933  0.38951  0.13320  Biso   1.000  Cu
  Cu3      1.0000 0.13320  0.44933  0.38951  Biso   1.000  Cu
  Cu4      1.0000 0.88951  0.36680  0.55067  Biso   1.000  Cu
  Cu5      1.0000 0.94933  0.11049  0.86680  Biso   1.000  Cu
  Cu6      1.0000 0.63320  0.05067  0.61049  Biso   1.000  Cu
  Cu7      1.0000 0.61049  0.63320  0.05067  Biso   1.000  Cu
  Cu8      1.0000 0.55067  0.88951  0.36680  Biso   1.000  Cu
  Cu9      1.0000 0.86680  0.94933  0.11049  Biso   1.000  Cu
  Cu10     1.0000 0.11049  0.86680  0.94933  Biso   1.000  Cu
  Cu11     1.0000 0.05067  0.61049  0.63320  Biso   1.000  Cu
  Cu12     1.0000 0.36680  0.55067  0.88951  Biso   1.000  Cu
  Cu13     1.0000 0.28245  0.02532  0.64517  Biso   1.000  Cu
  Cu14     1.0000 0.64517  0.28245  0.02532  Biso   1.000  Cu
  Cu15     1.0000 0.02532  0.64517  0.28245  Biso   1.000  Cu
  Cu16     1.0000 0.78245  0.47468  0.35483  Biso   1.000  Cu
  Cu17     1.0000 0.14517  0.21755  0.97468  Biso   1.000  Cu
  Cu18     1.0000 0.52532  0.85483  0.71755  Biso   1.000  Cu
  Cu19     1.0000 0.71755  0.52532  0.85483  Biso   1.000  Cu
  Cu20     1.0000 0.35483  0.78245  0.47468  Biso   1.000  Cu
  Cu21     1.0000 0.97468  0.14517  0.21755  Biso   1.000  Cu
  Cu22     1.0000 0.21755  0.97468  0.14517  Biso   1.000  Cu
  Cu23     1.0000 0.85483  0.71755  0.52532  Biso   1.000  Cu
  Cu24     1.0000 0.47468  0.35483  0.78245  Biso   1.000  Cu
  Cu25     1.0000 0.02664  0.10928  0.71995  Biso   1.000  Cu
  Cu26     1.0000 0.71995  0.02664  0.10928  Biso   1.000  Cu
  Cu27     1.0000 0.10928  0.71995  0.02664  Biso   1.000  Cu
  Cu28     1.0000 0.52664  0.39072  0.28005  Biso   1.000  Cu
  Cu29     1.0000 0.21995  0.47336  0.89072  Biso   1.000  Cu
  Cu30     1.0000 0.60928  0.78005  0.97336  Biso   1.000  Cu
  Cu31     1.0000 0.97336  0.60928  0.78005  Biso   1.000  Cu
  Cu32     1.0000 0.28005  0.52664  0.39072  Biso   1.000  Cu
  Cu33     1.0000 0.89072  0.21995  0.47336  Biso   1.000  Cu
  Cu34     1.0000 0.47336  0.89072  0.21995  Biso   1.000  Cu
  Cu35     1.0000 0.78005  0.97336  0.60928  Biso   1.000  Cu
  Cu36     1.0000 0.39072  0.28005  0.52664  Biso   1.000  Cu
  Cu37     1.0000 0.17744  0.03124  0.53469  Biso   1.000  Cu
  Cu38     1.0000 0.53469  0.17744  0.03124  Biso   1.000  Cu
  Cu39     1.0000 0.03124  0.53469  0.17744  Biso   1.000  Cu
  Cu40     1.0000 0.67744  0.46876  0.46531  Biso   1.000  Cu
  Cu41     1.0000 0.03469  0.32256  0.96876  Biso   1.000  Cu
  Cu42     1.0000 0.53124  0.96531  0.82256  Biso   1.000  Cu
  Cu43     1.0000 0.82256  0.53124  0.96531  Biso   1.000  Cu
  Cu44     1.0000 0.46531  0.67744  0.46876  Biso   1.000  Cu
  Cu45     1.0000 0.96876  0.03469  0.32256  Biso   1.000  Cu
  Cu46     1.0000 0.32256  0.96876  0.03469  Biso   1.000  Cu
  Cu47     1.0000 0.96531  0.82256  0.53124  Biso   1.000  Cu
  Cu48     1.0000 0.46876  0.46531  0.67744  Biso   1.000  Cu
  Cl1      1.0000 0.28240  0.13580  0.54990  Biso   1.000  Cl
  Cl2      1.0000 0.54990  0.28240  0.13580  Biso   1.000  Cl
  Cl3      1.0000 0.13580  0.54990  0.28240  Biso   1.000  Cl
  Cl4      1.0000 0.78240  0.36420  0.45010  Biso   1.000  Cl
  Cl5      1.0000 0.04990  0.21760  0.86420  Biso   1.000  Cl
  Cl6      1.0000 0.63580  0.95010  0.71760  Biso   1.000  Cl
  Cl7      1.0000 0.71760  0.63580  0.95010  Biso   1.000  Cl
  Cl8      1.0000 0.45010  0.78240  0.36420  Biso   1.000  Cl
  Cl9      1.0000 0.86420  0.04990  0.21760  Biso   1.000  Cl
  Cl10     1.0000 0.21760  0.86420  0.04990  Biso   1.000  Cl
  Cl11     1.0000 0.95010  0.71760  0.63580  Biso   1.000  Cl
  Cl12     1.0000 0.36420  0.45010  0.78240  Biso   1.000  Cl
  Cl13     1.0000 0.45419  0.95419  0.54581  Biso   1.000  Cl
  Cl14     1.0000 0.54581  0.45419  0.95419  Biso   1.000  Cl
  Cl15     1.0000 0.95419  0.54581  0.45419  Biso   1.000  Cl
  Cl16     1.0000 0.04581  0.04581  0.04581  Biso   1.000  Cl
  Cl17     1.0000 0.96764  0.03236  0.53236  Biso   1.000  Cl
  Cl18     1.0000 0.53236  0.96764  0.03236  Biso   1.000  Cl
  Cl19     1.0000 0.03236  0.53236  0.96764  Biso   1.000  Cl
  Cl20     1.0000 0.46764  0.46764  0.46764  Biso   1.000  Cl
  S1       1.0000 0.35836  0.05291  0.48036  Biso   1.000  S
  S2       1.0000 0.48036  0.35836  0.05291  Biso   1.000  S
  S3       1.0000 0.05291  0.48036  0.35836  Biso   1.000  S
  S4       1.0000 0.85836  0.44709  0.51964  Biso   1.000  S
  S5       1.0000 0.98036  0.14164  0.94709  Biso   1.000  S
  S6       1.0000 0.55291  0.01964  0.64164  Biso   1.000  S
  S7       1.0000 0.64164  0.55291  0.01964  Biso   1.000  S
  S8       1.0000 0.51964  0.85836  0.44709  Biso   1.000  S
  S9       1.0000 0.94709  0.98036  0.14164  Biso   1.000  S
  S10      1.0000 0.14164  0.94709  0.98036  Biso   1.000  S
  S11      1.0000 0.01964  0.64164  0.55291  Biso   1.000  S
  S12      1.0000 0.44709  0.51964  0.85836  Biso   1.000  S
  S13      1.0000 0.34673  0.94207  0.56534  Biso   1.000  S
  S14      1.0000 0.56534  0.34673  0.94207  Biso   1.000  S
  S15      1.0000 0.94207  0.56534  0.34673  Biso   1.000  S
  S16      1.0000 0.84673  0.55793  0.43466  Biso   1.000  S
  S17      1.0000 0.06534  0.15327  0.05793  Biso   1.000  S
  S18      1.0000 0.44207  0.93466  0.65327  Biso   1.000  S
  S19      1.0000 0.65327  0.44207  0.93466  Biso   1.000  S
  S20      1.0000 0.43466  0.84673  0.55793  Biso   1.000  S
  S21      1.0000 0.05793  0.06534  0.15327  Biso   1.000  S
  S22      1.0000 0.15327  0.05793  0.06534  Biso   1.000  S
  S23      1.0000 0.93466  0.65327  0.44207  Biso   1.000  S
  S24      1.0000 0.55793  0.43466  0.84673  Biso   1.000  S
  S25      1.0000 0.36326  0.05341  0.61381  Biso   1.000  S
  S26      1.0000 0.61381  0.36326  0.05341  Biso   1.000  S
  S27      1.0000 0.05341  0.61381  0.36326  Biso   1.000  S
  S28      1.0000 0.86326  0.44659  0.38619  Biso   1.000  S
  S29      1.0000 0.11381  0.13674  0.94659  Biso   1.000  S
  S30      1.0000 0.55341  0.88619  0.63674  Biso   1.000  S
  S31      1.0000 0.63674  0.55341  0.88619  Biso   1.000  S
  S32      1.0000 0.38619  0.86326  0.44659  Biso   1.000  S
  S33      1.0000 0.94659  0.11381  0.13674  Biso   1.000  S
  S34      1.0000 0.13674  0.94659  0.11381  Biso   1.000  S
  S35      1.0000 0.88619  0.63674  0.55341  Biso   1.000  S
  S36      1.0000 0.44659  0.38619  0.86326  Biso   1.000  S
  S37      1.0000 0.47224  0.06138  0.52600  Biso   1.000  S
  S38      1.0000 0.52600  0.47224  0.06138  Biso   1.000  S
  S39      1.0000 0.06138  0.52600  0.47224  Biso   1.000  S
  S40      1.0000 0.97224  0.43862  0.47400  Biso   1.000  S
  S41      1.0000 0.02600  0.02776  0.93862  Biso   1.000  S
  S42      1.0000 0.56138  0.97400  0.52776  Biso   1.000  S
  S43      1.0000 0.52776  0.56138  0.97400  Biso   1.000  S
  S44      1.0000 0.47400  0.97224  0.43862  Biso   1.000  S
  S45      1.0000 0.93862  0.02600  0.02776  Biso   1.000  S
  S46      1.0000 0.02776  0.93862  0.02600  Biso   1.000  S
  S47      1.0000 0.97400  0.52776  0.56138  Biso   1.000  S
  S48      1.0000 0.43862  0.47400  0.97224  Biso   1.000  S
  S49      1.0000 0.04575  0.04305  0.65864  Biso   1.000  S
  S50      1.0000 0.65864  0.04575  0.04305  Biso   1.000  S
  S51      1.0000 0.04305  0.65864  0.04575  Biso   1.000  S
  S52      1.0000 0.54575  0.45695  0.34136  Biso   1.000  S
  S53      1.0000 0.15864  0.45425  0.95695  Biso   1.000  S
  S54      1.0000 0.54305  0.84136  0.95425  Biso   1.000  S
  S55      1.0000 0.95425  0.54305  0.84136  Biso   1.000  S
  S56      1.0000 0.34136  0.54575  0.45695  Biso   1.000  S
  S57      1.0000 0.95695  0.15864  0.45425  Biso   1.000  S
  S58      1.0000 0.45425  0.95695  0.15864  Biso   1.000  S
  S59      1.0000 0.84136  0.95425  0.54305  Biso   1.000  S
  S60      1.0000 0.45695  0.34136  0.54575  Biso   1.000  S
  S61      1.0000 0.06246  0.97244  0.53888  Biso   1.000  S
  S62      1.0000 0.53888  0.06246  0.97244  Biso   1.000  S
  S63      1.0000 0.97244  0.53888  0.06246  Biso   1.000  S
  S64      1.0000 0.56246  0.52756  0.46112  Biso   1.000  S
  S65      1.0000 0.03888  0.43754  0.02756  Biso   1.000  S
  S66      1.0000 0.47244  0.96112  0.93754  Biso   1.000  S
  S67      1.0000 0.93754  0.47244  0.96112  Biso   1.000  S
  S68      1.0000 0.46112  0.56246  0.52756  Biso   1.000  S
  S69      1.0000 0.02756  0.03888  0.43754  Biso   1.000  S
  S70      1.0000 0.43754  0.02756  0.03888  Biso   1.000  S
  S71      1.0000 0.96112  0.93754  0.47244  Biso   1.000  S
  S72      1.0000 0.52756  0.46112  0.56246  Biso   1.000  S
  S73      1.0000 0.10665  0.08794  0.55130  Biso   1.000  S
  S74      1.0000 0.55130  0.10665  0.08794  Biso   1.000  S
  S75      1.0000 0.08794  0.55130  0.10665  Biso   1.000  S
  S76      1.0000 0.60665  0.41206  0.44870  Biso   1.000  S
  S77      1.0000 0.05130  0.39335  0.91206  Biso   1.000  S
  S78      1.0000 0.58794  0.94870  0.89335  Biso   1.000  S
  S79      1.0000 0.89335  0.58794  0.94870  Biso   1.000  S
  S80      1.0000 0.44870  0.60665  0.41206  Biso   1.000  S
  S81      1.0000 0.91206  0.05130  0.39335  Biso   1.000  S
  S82      1.0000 0.39335  0.91206  0.05130  Biso   1.000  S
  S83      1.0000 0.94870  0.89335  0.58794  Biso   1.000  S
  S84      1.0000 0.41206  0.44870  0.60665  Biso   1.000  S
  S85      1.0000 0.97861  0.12202  0.59698  Biso   1.000  S
  S86      1.0000 0.59698  0.97861  0.12202  Biso   1.000  S
  S87      1.0000 0.12202  0.59698  0.97861  Biso   1.000  S
  S88      1.0000 0.47861  0.37798  0.40302  Biso   1.000  S
  S89      1.0000 0.09698  0.52139  0.87798  Biso   1.000  S
  S90      1.0000 0.62202  0.90302  0.02139  Biso   1.000  S
  S91      1.0000 0.02139  0.62202  0.90302  Biso   1.000  S
  S92      1.0000 0.40302  0.47861  0.37798  Biso   1.000  S
  S93      1.0000 0.87798  0.09698  0.52139  Biso   1.000  S
  S94      1.0000 0.52139  0.87798  0.09698  Biso   1.000  S
  S95      1.0000 0.90302  0.02139  0.62202  Biso   1.000  S
  S96      1.0000 0.37798  0.40302  0.47861  Biso   1.000  S
  O1       1.0000 0.39180  0.10810  0.39900  Biso   1.000  O
  O2       1.0000 0.39900  0.39180  0.10810  Biso   1.000  O
  O3       1.0000 0.10810  0.39900  0.39180  Biso   1.000  O
  O4       1.0000 0.89180  0.39190  0.60100  Biso   1.000  O
  O5       1.0000 0.89900  0.10820  0.89190  Biso   1.000  O
  O6       1.0000 0.60810  0.10100  0.60820  Biso   1.000  O
  O7       1.0000 0.60820  0.60810  0.10100  Biso   1.000  O
  O8       1.0000 0.60100  0.89180  0.39190  Biso   1.000  O
  O9       1.0000 0.89190  0.89900  0.10820  Biso   1.000  O
  O10      1.0000 0.10820  0.89190  0.89900  Biso   1.000  O
  O11      1.0000 0.10100  0.60820  0.60810  Biso   1.000  O
  O12      1.0000 0.39190  0.60100  0.89180  Biso   1.000  O
  O13      1.0000 0.35230  0.07630  0.35160  Biso   1.000  O
  O14      1.0000 0.35160  0.35230  0.07630  Biso   1.000  O
  O15      1.0000 0.07630  0.35160  0.35230  Biso   1.000  O
  O16      1.0000 0.85230  0.42370  0.64840  Biso   1.000  O
  O17      1.0000 0.85160  0.14770  0.92370  Biso   1.000  O
  O18      1.0000 0.57630  0.14840  0.64770  Biso   1.000  O
  O19      1.0000 0.64770  0.57630  0.14840  Biso   1.000  O
  O20      1.0000 0.64840  0.85230  0.42370  Biso   1.000  O
  O21      1.0000 0.92370  0.85160  0.14770  Biso   1.000  O
  O22      1.0000 0.14770  0.92370  0.85160  Biso   1.000  O
  O23      1.0000 0.14840  0.64770  0.57630  Biso   1.000  O
  O24      1.0000 0.42370  0.64840  0.85230  Biso   1.000  O
  O25      1.0000 0.38990  0.15250  0.50540  Biso   1.000  O
  O26      1.0000 0.50540  0.38990  0.15250  Biso   1.000  O
  O27      1.0000 0.15250  0.50540  0.38990  Biso   1.000  O
  O28      1.0000 0.88990  0.34750  0.49460  Biso   1.000  O
  O29      1.0000 0.00540  0.11010  0.84750  Biso   1.000  O
  O30      1.0000 0.65250  0.99460  0.61010  Biso   1.000  O
  O31      1.0000 0.61010  0.65250  0.99460  Biso   1.000  O
  O32      1.0000 0.49460  0.88990  0.34750  Biso   1.000  O
  O33      1.0000 0.84750  0.00540  0.11010  Biso   1.000  O
  O34      1.0000 0.11010  0.84750  0.00540  Biso   1.000  O
  O35      1.0000 0.99460  0.61010  0.65250  Biso   1.000  O
  O36      1.0000 0.34750  0.49460  0.88990  Biso   1.000  O
  O37      1.0000 0.42880  0.17100  0.55750  Biso   1.000  O
  O38      1.0000 0.55750  0.42880  0.17100  Biso   1.000  O
  O39      1.0000 0.17100  0.55750  0.42880  Biso   1.000  O
  O40      1.0000 0.92880  0.32900  0.44250  Biso   1.000  O
  O41      1.0000 0.05750  0.07120  0.82900  Biso   1.000  O
  O42      1.0000 0.67100  0.94250  0.57120  Biso   1.000  O
  O43      1.0000 0.57120  0.67100  0.94250  Biso   1.000  O
  O44      1.0000 0.44250  0.92880  0.32900  Biso   1.000  O
  O45      1.0000 0.82900  0.05750  0.07120  Biso   1.000  O
  O46      1.0000 0.07120  0.82900  0.05750  Biso   1.000  O
  O47      1.0000 0.94250  0.57120  0.67100  Biso   1.000  O
  O48      1.0000 0.32900  0.44250  0.92880  Biso   1.000  O
  O49      1.0000 0.26580  0.02900  0.59080  Biso   1.000  O
  O50      1.0000 0.59080  0.26580  0.02900  Biso   1.000  O
  O51      1.0000 0.02900  0.59080  0.26580  Biso   1.000  O
  O52      1.0000 0.76580  0.47100  0.40920  Biso   1.000  O
  O53      1.0000 0.09080  0.23420  0.97100  Biso   1.000  O
  O54      1.0000 0.52900  0.90920  0.73420  Biso   1.000  O
  O55      1.0000 0.73420  0.52900  0.90920  Biso   1.000  O
  O56      1.0000 0.40920  0.76580  0.47100  Biso   1.000  O
  O57      1.0000 0.97100  0.09080  0.23420  Biso   1.000  O
  O58      1.0000 0.23420  0.97100  0.09080  Biso   1.000  O
  O59      1.0000 0.90920  0.73420  0.52900  Biso   1.000  O
  O60      1.0000 0.47100  0.40920  0.76580  Biso   1.000  O
  O61      1.0000 0.23810  0.99140  0.53810  Biso   1.000  O
  O62      1.0000 0.53810  0.23810  0.99140  Biso   1.000  O
  O63      1.0000 0.99140  0.53810  0.23810  Biso   1.000  O
  O64      1.0000 0.73810  0.50860  0.46190  Biso   1.000  O
  O65      1.0000 0.03810  0.26190  0.00860  Biso   1.000  O
  O66      1.0000 0.49140  0.96190  0.76190  Biso   1.000  O
  O67      1.0000 0.76190  0.49140  0.96190  Biso   1.000  O
  O68      1.0000 0.46190  0.73810  0.50860  Biso   1.000  O
  O69      1.0000 0.00860  0.03810  0.26190  Biso   1.000  O
  O70      1.0000 0.26190  0.00860  0.03810  Biso   1.000  O
  O71      1.0000 0.96190  0.76190  0.49140  Biso   1.000  O
  O72      1.0000 0.50860  0.46190  0.73810  Biso   1.000  O
  O73      1.0000 0.30960  0.01880  0.69790  Biso   1.000  O
  O74      1.0000 0.69790  0.30960  0.01880  Biso   1.000  O
  O75      1.0000 0.01880  0.69790  0.30960  Biso   1.000  O
  O76      1.0000 0.80960  0.48120  0.30210  Biso   1.000  O
  O77      1.0000 0.19790  0.19040  0.98120  Biso   1.000  O
  O78      1.0000 0.51880  0.80210  0.69040  Biso   1.000  O
  O79      1.0000 0.69040  0.51880  0.80210  Biso   1.000  O
  O80      1.0000 0.30210  0.80960  0.48120  Biso   1.000  O
  O81      1.0000 0.98120  0.19790  0.19040  Biso   1.000  O
  O82      1.0000 0.19040  0.98120  0.19790  Biso   1.000  O
  O83      1.0000 0.80210  0.69040  0.51880  Biso   1.000  O
  O84      1.0000 0.48120  0.30210  0.80960  Biso   1.000  O
  O85      1.0000 0.34380  0.05920  0.74300  Biso   1.000  O
  O86      1.0000 0.74300  0.34380  0.05920  Biso   1.000  O
  O87      1.0000 0.05920  0.74300  0.34380  Biso   1.000  O
  O88      1.0000 0.84380  0.44080  0.25700  Biso   1.000  O
  O89      1.0000 0.24300  0.15620  0.94080  Biso   1.000  O
  O90      1.0000 0.55920  0.75700  0.65620  Biso   1.000  O
  O91      1.0000 0.65620  0.55920  0.75700  Biso   1.000  O
  O92      1.0000 0.25700  0.84380  0.44080  Biso   1.000  O
  O93      1.0000 0.94080  0.24300  0.15620  Biso   1.000  O
  O94      1.0000 0.15620  0.94080  0.24300  Biso   1.000  O
  O95      1.0000 0.75700  0.65620  0.55920  Biso   1.000  O
  O96      1.0000 0.44080  0.25700  0.84380  Biso   1.000  O
  O97      1.0000 0.98870  0.06960  0.74420  Biso   1.000  O
  O98      1.0000 0.74420  0.98870  0.06960  Biso   1.000  O
  O99      1.0000 0.06960  0.74420  0.98870  Biso   1.000  O
  O100     1.0000 0.48870  0.43040  0.25580  Biso   1.000  O
  O101     1.0000 0.24420  0.51130  0.93040  Biso   1.000  O
  O102     1.0000 0.56960  0.75580  0.01130  Biso   1.000  O
  O103     1.0000 0.01130  0.56960  0.75580  Biso   1.000  O
  O104     1.0000 0.25580  0.48870  0.43040  Biso   1.000  O
  O105     1.0000 0.93040  0.24420  0.51130  Biso   1.000  O
  O106     1.0000 0.51130  0.93040  0.24420  Biso   1.000  O
  O107     1.0000 0.75580  0.01130  0.56960  Biso   1.000  O
  O108     1.0000 0.43040  0.25580  0.48870  Biso   1.000  O
  O109     1.0000 0.98750  0.00440  0.76630  Biso   1.000  O
  O110     1.0000 0.76630  0.98750  0.00440  Biso   1.000  O
  O111     1.0000 0.00440  0.76630  0.98750  Biso   1.000  O
  O112     1.0000 0.48750  0.49560  0.23370  Biso   1.000  O
  O113     1.0000 0.26630  0.51250  0.99560  Biso   1.000  O
  O114     1.0000 0.50440  0.73370  0.01250  Biso   1.000  O
  O115     1.0000 0.01250  0.50440  0.73370  Biso   1.000  O
  O116     1.0000 0.23370  0.48750  0.49560  Biso   1.000  O
  O117     1.0000 0.99560  0.26630  0.51250  Biso   1.000  O
  O118     1.0000 0.51250  0.99560  0.26630  Biso   1.000  O
  O119     1.0000 0.73370  0.01250  0.50440  Biso   1.000  O
  O120     1.0000 0.49560  0.23370  0.48750  Biso   1.000  O
  O121     1.0000 0.06200  0.14140  0.68650  Biso   1.000  O
  O122     1.0000 0.68650  0.06200  0.14140  Biso   1.000  O
  O123     1.0000 0.14140  0.68650  0.06200  Biso   1.000  O
  O124     1.0000 0.56200  0.35860  0.31350  Biso   1.000  O
  O125     1.0000 0.18650  0.43800  0.85860  Biso   1.000  O
  O126     1.0000 0.64140  0.81350  0.93800  Biso   1.000  O
  O127     1.0000 0.93800  0.64140  0.81350  Biso   1.000  O
  O128     1.0000 0.31350  0.56200  0.35860  Biso   1.000  O
  O129     1.0000 0.85860  0.18650  0.43800  Biso   1.000  O
  O130     1.0000 0.43800  0.85860  0.18650  Biso   1.000  O
  O131     1.0000 0.81350  0.93800  0.64140  Biso   1.000  O
  O132     1.0000 0.35860  0.31350  0.56200  Biso   1.000  O
  O133     1.0000 0.06500  0.19380  0.64350  Biso   1.000  O
  O134     1.0000 0.64350  0.06500  0.19380  Biso   1.000  O
  O135     1.0000 0.19380  0.64350  0.06500  Biso   1.000  O
  O136     1.0000 0.56500  0.30620  0.35650  Biso   1.000  O
  O137     1.0000 0.14350  0.43500  0.80620  Biso   1.000  O
  O138     1.0000 0.69380  0.85650  0.93500  Biso   1.000  O
  O139     1.0000 0.93500  0.69380  0.85650  Biso   1.000  O
  O140     1.0000 0.35650  0.56500  0.30620  Biso   1.000  O
  O141     1.0000 0.80620  0.14350  0.43500  Biso   1.000  O
  O142     1.0000 0.43500  0.80620  0.14350  Biso   1.000  O
  O143     1.0000 0.85650  0.93500  0.69380  Biso   1.000  O
  O144     1.0000 0.30620  0.35650  0.56500  Biso   1.000  O
  O145     1.0000 0.16330  0.00920  0.58780  Biso   1.000  O
  O146     1.0000 0.58780  0.16330  0.00920  Biso   1.000  O
  O147     1.0000 0.00920  0.58780  0.16330  Biso   1.000  O
  O148     1.0000 0.66330  0.49080  0.41220  Biso   1.000  O
  O149     1.0000 0.08780  0.33670  0.99080  Biso   1.000  O
  O150     1.0000 0.50920  0.91220  0.83670  Biso   1.000  O
  O151     1.0000 0.83670  0.50920  0.91220  Biso   1.000  O
  O152     1.0000 0.41220  0.66330  0.49080  Biso   1.000  O
  O153     1.0000 0.99080  0.08780  0.33670  Biso   1.000  O
  O154     1.0000 0.33670  0.99080  0.08780  Biso   1.000  O
  O155     1.0000 0.91220  0.83670  0.50920  Biso   1.000  O
  O156     1.0000 0.49080  0.41220  0.66330  Biso   1.000  O
  O157     1.0000 0.15640  0.94800  0.61940  Biso   1.000  O
  O158     1.0000 0.61940  0.15640  0.94800  Biso   1.000  O
  O159     1.0000 0.94800  0.61940  0.15640  Biso   1.000  O
  O160     1.0000 0.65640  0.55200  0.38060  Biso   1.000  O
  O161     1.0000 0.11940  0.34360  0.05200  Biso   1.000  O
  O162     1.0000 0.44800  0.88060  0.84360  Biso   1.000  O
  O163     1.0000 0.84360  0.44800  0.88060  Biso   1.000  O
  O164     1.0000 0.38060  0.65640  0.55200  Biso   1.000  O
  O165     1.0000 0.05200  0.11940  0.34360  Biso   1.000  O
  O166     1.0000 0.34360  0.05200  0.11940  Biso   1.000  O
  O167     1.0000 0.88060  0.84360  0.44800  Biso   1.000  O
  O168     1.0000 0.55200  0.38060  0.65640  Biso   1.000  O
  O169     1.0000 0.17960  0.05790  0.48130  Biso   1.000  O
  O170     1.0000 0.48130  0.17960  0.05790  Biso   1.000  O
  O171     1.0000 0.05790  0.48130  0.17960  Biso   1.000  O
  O172     1.0000 0.67960  0.44210  0.51870  Biso   1.000  O
  O173     1.0000 0.98130  0.32040  0.94210  Biso   1.000  O
  O174     1.0000 0.55790  0.01870  0.82040  Biso   1.000  O
  O175     1.0000 0.82040  0.55790  0.01870  Biso   1.000  O
  O176     1.0000 0.51870  0.67960  0.44210  Biso   1.000  O
  O177     1.0000 0.94210  0.98130  0.32040  Biso   1.000  O
  O178     1.0000 0.32040  0.94210  0.98130  Biso   1.000  O
  O179     1.0000 0.01870  0.82040  0.55790  Biso   1.000  O
  O180     1.0000 0.44210  0.51870  0.67960  Biso   1.000  O
  O181     1.0000 0.18580  0.11850  0.44940  Biso   1.000  O
  O182     1.0000 0.44940  0.18580  0.11850  Biso   1.000  O
  O183     1.0000 0.11850  0.44940  0.18580  Biso   1.000  O
  O184     1.0000 0.68580  0.38150  0.55060  Biso   1.000  O
  O185     1.0000 0.94940  0.31420  0.88150  Biso   1.000  O
  O186     1.0000 0.61850  0.05060  0.81420  Biso   1.000  O
  O187     1.0000 0.81420  0.61850  0.05060  Biso   1.000  O
  O188     1.0000 0.55060  0.68580  0.38150  Biso   1.000  O
  O189     1.0000 0.88150  0.94940  0.31420  Biso   1.000  O
  O190     1.0000 0.31420  0.88150  0.94940  Biso   1.000  O
  O191     1.0000 0.05060  0.81420  0.61850  Biso   1.000  O
  O192     1.0000 0.38150  0.55060  0.68580  Biso   1.000  O
  O193     1.0000 0.17680  0.09010  0.64570  Biso   1.000  O
  O194     1.0000 0.64570  0.17680  0.09010  Biso   1.000  O
  O195     1.0000 0.09010  0.64570  0.17680  Biso   1.000  O
  O196     1.0000 0.67680  0.40990  0.35430  Biso   1.000  O
  O197     1.0000 0.14570  0.32320  0.90990  Biso   1.000  O
  O198     1.0000 0.59010  0.85430  0.82320  Biso   1.000  O
  O199     1.0000 0.82320  0.59010  0.85430  Biso   1.000  O
  O200     1.0000 0.35430  0.67680  0.40990  Biso   1.000  O
  O201     1.0000 0.90990  0.14570  0.32320  Biso   1.000  O
  O202     1.0000 0.32320  0.90990  0.14570  Biso   1.000  O
  O203     1.0000 0.85430  0.82320  0.59010  Biso   1.000  O
  O204     1.0000 0.40990  0.35430  0.67680  Biso   1.000  O
  O205     1.0000 0.40360  0.20330  0.42600  Biso   1.000  O
  O206     1.0000 0.42600  0.40360  0.20330  Biso   1.000  O
  O207     1.0000 0.20330  0.42600  0.40360  Biso   1.000  O
  O208     1.0000 0.90360  0.29670  0.57400  Biso   1.000  O
  O209     1.0000 0.92600  0.09640  0.79670  Biso   1.000  O
  O210     1.0000 0.70330  0.07400  0.59640  Biso   1.000  O
  O211     1.0000 0.59640  0.70330  0.07400  Biso   1.000  O
  O212     1.0000 0.57400  0.90360  0.29670  Biso   1.000  O
  O213     1.0000 0.79670  0.92600  0.09640  Biso   1.000  O
  O214     1.0000 0.09640  0.79670  0.92600  Biso   1.000  O
  O215     1.0000 0.07400  0.59640  0.70330  Biso   1.000  O
  O216     1.0000 0.29670  0.57400  0.90360  Biso   1.000  O
  O217     1.0000 0.21240  0.01610  0.66650  Biso   1.000  O
  O218     1.0000 0.66650  0.21240  0.01610  Biso   1.000  O
  O219     1.0000 0.01610  0.66650  0.21240  Biso   1.000  O
  O220     1.0000 0.71240  0.48390  0.33350  Biso   1.000  O
  O221     1.0000 0.16650  0.28760  0.98390  Biso   1.000  O
  O222     1.0000 0.51610  0.83350  0.78760  Biso   1.000  O
  O223     1.0000 0.78760  0.51610  0.83350  Biso   1.000  O
  O224     1.0000 0.33350  0.71240  0.48390  Biso   1.000  O
  O225     1.0000 0.98390  0.16650  0.28760  Biso   1.000  O
  O226     1.0000 0.28760  0.98390  0.16650  Biso   1.000  O
  O227     1.0000 0.83350  0.78760  0.51610  Biso   1.000  O
  O228     1.0000 0.48390  0.33350  0.71240  Biso   1.000  O
  O229     1.0000 0.02510  0.15340  0.77460  Biso   1.000  O
  O230     1.0000 0.77460  0.02510  0.15340  Biso   1.000  O
  O231     1.0000 0.15340  0.77460  0.02510  Biso   1.000  O
  O232     1.0000 0.52510  0.34660  0.22540  Biso   1.000  O
  O233     1.0000 0.27460  0.47490  0.84660  Biso   1.000  O
  O234     1.0000 0.65340  0.72540  0.97490  Biso   1.000  O
  O235     1.0000 0.97490  0.65340  0.72540  Biso   1.000  O
  O236     1.0000 0.22540  0.52510  0.34660  Biso   1.000  O
  O237     1.0000 0.84660  0.27460  0.47490  Biso   1.000  O
  O238     1.0000 0.47490  0.84660  0.27460  Biso   1.000  O
  O239     1.0000 0.72540  0.97490  0.65340  Biso   1.000  O
  O240     1.0000 0.34660  0.22540  0.52510  Biso   1.000  O
  O241     1.0000 0.20710  0.08140  0.37120  Biso   1.000  O
  O242     1.0000 0.37120  0.20710  0.08140  Biso   1.000  O
  O243     1.0000 0.08140  0.37120  0.20710  Biso   1.000  O
  O244     1.0000 0.70710  0.41860  0.62880  Biso   1.000  O
  O245     1.0000 0.87120  0.29290  0.91860  Biso   1.000  O
  O246     1.0000 0.58140  0.12880  0.79290  Biso   1.000  O
  O247     1.0000 0.79290  0.58140  0.12880  Biso   1.000  O
  O248     1.0000 0.62880  0.70710  0.41860  Biso   1.000  O
  O249     1.0000 0.91860  0.87120  0.29290  Biso   1.000  O
  O250     1.0000 0.29290  0.91860  0.87120  Biso   1.000  O
  O251     1.0000 0.12880  0.79290  0.58140  Biso   1.000  O
  O252     1.0000 0.41860  0.62880  0.70710  Biso   1.000  O
  O253     1.0000 0.29100  0.19280  0.38490  Biso   1.000  O
  O254     1.0000 0.38490  0.29100  0.19280  Biso   1.000  O
  O255     1.0000 0.19280  0.38490  0.29100  Biso   1.000  O
  O256     1.0000 0.79100  0.30720  0.61510  Biso   1.000  O
  O257     1.0000 0.88490  0.20900  0.80720  Biso   1.000  O
  O258     1.0000 0.69280  0.11510  0.70900  Biso   1.000  O
  O259     1.0000 0.70900  0.69280  0.11510  Biso   1.000  O
  O260     1.0000 0.61510  0.79100  0.30720  Biso   1.000  O
  O261     1.0000 0.80720  0.88490  0.20900  Biso   1.000  O
  O262     1.0000 0.20900  0.80720  0.88490  Biso   1.000  O
  O263     1.0000 0.11510  0.70900  0.69280  Biso   1.000  O
  O264     1.0000 0.30720  0.61510  0.79100  Biso   1.000  O
  O265     1.0000 0.33220  0.25310  0.40270  Biso   1.000  O
  O266     1.0000 0.40270  0.33220  0.25310  Biso   1.000  O
  O267     1.0000 0.25310  0.40270  0.33220  Biso   1.000  O
  O268     1.0000 0.83220  0.24690  0.59730  Biso   1.000  O
  O269     1.0000 0.90270  0.16780  0.74690  Biso   1.000  O
  O270     1.0000 0.75310  0.09730  0.66780  Biso   1.000  O
  O271     1.0000 0.66780  0.75310  0.09730  Biso   1.000  O
  O272     1.0000 0.59730  0.83220  0.24690  Biso   1.000  O
  O273     1.0000 0.74690  0.90270  0.16780  Biso   1.000  O
  O274     1.0000 0.16780  0.74690  0.90270  Biso   1.000  O
  O275     1.0000 0.09730  0.66780  0.75310  Biso   1.000  O
  O276     1.0000 0.24690  0.59730  0.83220  Biso   1.000  O
  O277     1.0000 0.41380  0.08820  0.29020  Biso   1.000  O
  O278     1.0000 0.29020  0.41380  0.08820  Biso   1.000  O
  O279     1.0000 0.08820  0.29020  0.41380  Biso   1.000  O
  O280     1.0000 0.91380  0.41180  0.70980  Biso   1.000  O
  O281     1.0000 0.79020  0.08620  0.91180  Biso   1.000  O
  O282     1.0000 0.58820  0.20980  0.58620  Biso   1.000  O
  O283     1.0000 0.58620  0.58820  0.20980  Biso   1.000  O
  O284     1.0000 0.70980  0.91380  0.41180  Biso   1.000  O
  O285     1.0000 0.91180  0.79020  0.08620  Biso   1.000  O
  O286     1.0000 0.08620  0.91180  0.79020  Biso   1.000  O
  O287     1.0000 0.20980  0.58620  0.58820  Biso   1.000  O
  O288     1.0000 0.41180  0.70980  0.91380  Biso   1.000  O
  O289     1.0000 0.18700  0.92850  0.44820  Biso   1.000  O
  O290     1.0000 0.44820  0.18700  0.92850  Biso   1.000  O
  O291     1.0000 0.92850  0.44820  0.18700  Biso   1.000  O
  O292     1.0000 0.68700  0.57150  0.55180  Biso   1.000  O
  O293     1.0000 0.94820  0.31300  0.07150  Biso   1.000  O
  O294     1.0000 0.42850  0.05180  0.81300  Biso   1.000  O
  O295     1.0000 0.81300  0.42850  0.05180  Biso   1.000  O
  O296     1.0000 0.55180  0.68700  0.57150  Biso   1.000  O
  O297     1.0000 0.07150  0.94820  0.31300  Biso   1.000  O
  O298     1.0000 0.31300  0.07150  0.94820  Biso   1.000  O
  O299     1.0000 0.05180  0.81300  0.42850  Biso   1.000  O
  O300     1.0000 0.57150  0.55180  0.68700  Biso   1.000  O
  O301     1.0000 0.21320  0.94720  0.41790  Biso   1.000  O
  O302     1.0000 0.41790  0.21320  0.94720  Biso   1.000  O
  O303     1.0000 0.94720  0.41790  0.21320  Biso   1.000  O
  O304     1.0000 0.71320  0.55280  0.58210  Biso   1.000  O
  O305     1.0000 0.91790  0.28680  0.05280  Biso   1.000  O
  O306     1.0000 0.44720  0.08210  0.78680  Biso   1.000  O
  O307     1.0000 0.78680  0.44720  0.08210  Biso   1.000  O
  O308     1.0000 0.58210  0.71320  0.55280  Biso   1.000  O
  O309     1.0000 0.05280  0.91790  0.28680  Biso   1.000  O
  O310     1.0000 0.28680  0.05280  0.91790  Biso   1.000  O
  O311     1.0000 0.08210  0.78680  0.44720  Biso   1.000  O
  O312     1.0000 0.55280  0.58210  0.71320  Biso   1.000  O
  N1       1.0000 0.32960  0.12960  0.44300  Biso   1.000  N
  N2       1.0000 0.44300  0.32960  0.12960  Biso   1.000  N
  N3       1.0000 0.12960  0.44300  0.32960  Biso   1.000  N
  N4       1.0000 0.82960  0.37040  0.55700  Biso   1.000  N
  N5       1.0000 0.94300  0.17040  0.87040  Biso   1.000  N
  N6       1.0000 0.62960  0.05700  0.67040  Biso   1.000  N
  N7       1.0000 0.67040  0.62960  0.05700  Biso   1.000  N
  N8       1.0000 0.55700  0.82960  0.37040  Biso   1.000  N
  N9       1.0000 0.87040  0.94300  0.17040  Biso   1.000  N
  N10      1.0000 0.17040  0.87040  0.94300  Biso   1.000  N
  N11      1.0000 0.05700  0.67040  0.62960  Biso   1.000  N
  N12      1.0000 0.37040  0.55700  0.82960  Biso   1.000  N
  N13      1.0000 0.44910  0.12380  0.45740  Biso   1.000  N
  N14      1.0000 0.45740  0.44910  0.12380  Biso   1.000  N
  N15      1.0000 0.12380  0.45740  0.44910  Biso   1.000  N
  N16      1.0000 0.94910  0.37620  0.54260  Biso   1.000  N
  N17      1.0000 0.95740  0.05090  0.87620  Biso   1.000  N
  N18      1.0000 0.62380  0.04260  0.55090  Biso   1.000  N
  N19      1.0000 0.55090  0.62380  0.04260  Biso   1.000  N
  N20      1.0000 0.54260  0.94910  0.37620  Biso   1.000  N
  N21      1.0000 0.87620  0.95740  0.05090  Biso   1.000  N
  N22      1.0000 0.05090  0.87620  0.95740  Biso   1.000  N
  N23      1.0000 0.04260  0.55090  0.62380  Biso   1.000  N
  N24      1.0000 0.37620  0.54260  0.94910  Biso   1.000  N
  N25      1.0000 0.28800  0.96650  0.63600  Biso   1.000  N
  N26      1.0000 0.63600  0.28800  0.96650  Biso   1.000  N
  N27      1.0000 0.96650  0.63600  0.28800  Biso   1.000  N
  N28      1.0000 0.78800  0.53350  0.36400  Biso   1.000  N
  N29      1.0000 0.13600  0.21200  0.03350  Biso   1.000  N
  N30      1.0000 0.46650  0.86400  0.71200  Biso   1.000  N
  N31      1.0000 0.71200  0.46650  0.86400  Biso   1.000  N
  N32      1.0000 0.36400  0.78800  0.53350  Biso   1.000  N
  N33      1.0000 0.03350  0.13600  0.21200  Biso   1.000  N
  N34      1.0000 0.21200  0.03350  0.13600  Biso   1.000  N
  N35      1.0000 0.86400  0.71200  0.46650  Biso   1.000  N
  N36      1.0000 0.53350  0.36400  0.78800  Biso   1.000  N
  N37      1.0000 0.28840  0.08610  0.65320  Biso   1.000  N
  N38      1.0000 0.65320  0.28840  0.08610  Biso   1.000  N
  N39      1.0000 0.08610  0.65320  0.28840  Biso   1.000  N
  N40      1.0000 0.78840  0.41390  0.34680  Biso   1.000  N
  N41      1.0000 0.15320  0.21160  0.91390  Biso   1.000  N
  N42      1.0000 0.58610  0.84680  0.71160  Biso   1.000  N
  N43      1.0000 0.71160  0.58610  0.84680  Biso   1.000  N
  N44      1.0000 0.34680  0.78840  0.41390  Biso   1.000  N
  N45      1.0000 0.91390  0.15320  0.21160  Biso   1.000  N
  N46      1.0000 0.21160  0.91390  0.15320  Biso   1.000  N
  N47      1.0000 0.84680  0.71160  0.58610  Biso   1.000  N
  N48      1.0000 0.41390  0.34680  0.78840  Biso   1.000  N
  N49      1.0000 0.06920  0.07250  0.74240  Biso   1.000  N
  N50      1.0000 0.74240  0.06920  0.07250  Biso   1.000  N
  N51      1.0000 0.07250  0.74240  0.06920  Biso   1.000  N
  N52      1.0000 0.56920  0.42750  0.25760  Biso   1.000  N
  N53      1.0000 0.24240  0.43080  0.92750  Biso   1.000  N
  N54      1.0000 0.57250  0.75760  0.93080  Biso   1.000  N
  N55      1.0000 0.93080  0.57250  0.75760  Biso   1.000  N
  N56      1.0000 0.25760  0.56920  0.42750  Biso   1.000  N
  N57      1.0000 0.92750  0.24240  0.43080  Biso   1.000  N
  N58      1.0000 0.43080  0.92750  0.24240  Biso   1.000  N
  N59      1.0000 0.75760  0.93080  0.57250  Biso   1.000  N
  N60      1.0000 0.42750  0.25760  0.56920  Biso   1.000  N
  N61      1.0000 0.98280  0.13650  0.69110  Biso   1.000  N
  N62      1.0000 0.69110  0.98280  0.13650  Biso   1.000  N
  N63      1.0000 0.13650  0.69110  0.98280  Biso   1.000  N
  N64      1.0000 0.48280  0.36350  0.30890  Biso   1.000  N
  N65      1.0000 0.19110  0.51720  0.86350  Biso   1.000  N
  N66      1.0000 0.63650  0.80890  0.01720  Biso   1.000  N
  N67      1.0000 0.01720  0.63650  0.80890  Biso   1.000  N
  N68      1.0000 0.30890  0.48280  0.36350  Biso   1.000  N
  N69      1.0000 0.86350  0.19110  0.51720  Biso   1.000  N
  N70      1.0000 0.51720  0.86350  0.19110  Biso   1.000  N
  N71      1.0000 0.80890  0.01720  0.63650  Biso   1.000  N
  N72      1.0000 0.36350  0.30890  0.48280  Biso   1.000  N
  N73      1.0000 0.15160  0.98280  0.51350  Biso   1.000  N
  N74      1.0000 0.51350  0.15160  0.98280  Biso   1.000  N
  N75      1.0000 0.98280  0.51350  0.15160  Biso   1.000  N
  N76      1.0000 0.65160  0.51720  0.48650  Biso   1.000  N
  N77      1.0000 0.01350  0.34840  0.01720  Biso   1.000  N
  N78      1.0000 0.48280  0.98650  0.84840  Biso   1.000  N
  N79      1.0000 0.84840  0.48280  0.98650  Biso   1.000  N
  N80      1.0000 0.48650  0.65160  0.51720  Biso   1.000  N
  N81      1.0000 0.01720  0.01350  0.34840  Biso   1.000  N
  N82      1.0000 0.34840  0.01720  0.01350  Biso   1.000  N
  N83      1.0000 0.98650  0.84840  0.48280  Biso   1.000  N
  N84      1.0000 0.51720  0.48650  0.65160  Biso   1.000  N
  N85      1.0000 0.19700  0.08600  0.55490  Biso   1.000  N
  N86      1.0000 0.55490  0.19700  0.08600  Biso   1.000  N
  N87      1.0000 0.08600  0.55490  0.19700  Biso   1.000  N
  N88      1.0000 0.69700  0.41400  0.44510  Biso   1.000  N
  N89      1.0000 0.05490  0.30300  0.91400  Biso   1.000  N
  N90      1.0000 0.58600  0.94510  0.80300  Biso   1.000  N
  N91      1.0000 0.80300  0.58600  0.94510  Biso   1.000  N
  N92      1.0000 0.44510  0.69700  0.41400  Biso   1.000  N
  N93      1.0000 0.91400  0.05490  0.30300  Biso   1.000  N
  N94      1.0000 0.30300  0.91400  0.05490  Biso   1.000  N
  N95      1.0000 0.94510  0.80300  0.58600  Biso   1.000  N
  N96      1.0000 0.41400  0.44510  0.69700  Biso   1.000  N
  C1       1.0000 0.35860  0.09400  0.38650  Biso   1.000  C
  C2       1.0000 0.38650  0.35860  0.09400  Biso   1.000  C
  C3       1.0000 0.09400  0.38650  0.35860  Biso   1.000  C
  C4       1.0000 0.85860  0.40600  0.61350  Biso   1.000  C
  C5       1.0000 0.88650  0.14140  0.90600  Biso   1.000  C
  C6       1.0000 0.59400  0.11350  0.64140  Biso   1.000  C
  C7       1.0000 0.64140  0.59400  0.11350  Biso   1.000  C
  C8       1.0000 0.61350  0.85860  0.40600  Biso   1.000  C
  C9       1.0000 0.90600  0.88650  0.14140  Biso   1.000  C
  C10      1.0000 0.14140  0.90600  0.88650  Biso   1.000  C
  C11      1.0000 0.11350  0.64140  0.59400  Biso   1.000  C
  C12      1.0000 0.40600  0.61350  0.85860  Biso   1.000  C
  C13      1.0000 0.32080  0.09430  0.41560  Biso   1.000  C
  C14      1.0000 0.41560  0.32080  0.09430  Biso   1.000  C
  C15      1.0000 0.09430  0.41560  0.32080  Biso   1.000  C
  C16      1.0000 0.82080  0.40570  0.58440  Biso   1.000  C
  C17      1.0000 0.91560  0.17920  0.90570  Biso   1.000  C
  C18      1.0000 0.59430  0.08440  0.67920  Biso   1.000  C
  C19      1.0000 0.67920  0.59430  0.08440  Biso   1.000  C
  C20      1.0000 0.58440  0.82080  0.40570  Biso   1.000  C
  C21      1.0000 0.90570  0.91560  0.17920  Biso   1.000  C
  C22      1.0000 0.17920  0.90570  0.91560  Biso   1.000  C
  C23      1.0000 0.08440  0.67920  0.59430  Biso   1.000  C
  C24      1.0000 0.40570  0.58440  0.82080  Biso   1.000  C
  C25      1.0000 0.31720  0.05540  0.44050  Biso   1.000  C
  C26      1.0000 0.44050  0.31720  0.05540  Biso   1.000  C
  C27      1.0000 0.05540  0.44050  0.31720  Biso   1.000  C
  C28      1.0000 0.81720  0.44460  0.55950  Biso   1.000  C
  C29      1.0000 0.94050  0.18280  0.94460  Biso   1.000  C
  C30      1.0000 0.55540  0.05950  0.68280  Biso   1.000  C
  C31      1.0000 0.68280  0.55540  0.05950  Biso   1.000  C
  C32      1.0000 0.55950  0.81720  0.44460  Biso   1.000  C
  C33      1.0000 0.94460  0.94050  0.18280  Biso   1.000  C
  C34      1.0000 0.18280  0.94460  0.94050  Biso   1.000  C
  C35      1.0000 0.05950  0.68280  0.55540  Biso   1.000  C
  C36      1.0000 0.44460  0.55950  0.81720  Biso   1.000  C
  C37      1.0000 0.27520  0.05440  0.46260  Biso   1.000  C
  C38      1.0000 0.46260  0.27520  0.05440  Biso   1.000  C
  C39      1.0000 0.05440  0.46260  0.27520  Biso   1.000  C
  C40      1.0000 0.77520  0.44560  0.53740  Biso   1.000  C
  C41      1.0000 0.96260  0.22480  0.94560  Biso   1.000  C
  C42      1.0000 0.55440  0.03740  0.72480  Biso   1.000  C
  C43      1.0000 0.72480  0.55440  0.03740  Biso   1.000  C
  C44      1.0000 0.53740  0.77520  0.44560  Biso   1.000  C
  C45      1.0000 0.94560  0.96260  0.22480  Biso   1.000  C
  C46      1.0000 0.22480  0.94560  0.96260  Biso   1.000  C
  C47      1.0000 0.03740  0.72480  0.55440  Biso   1.000  C
  C48      1.0000 0.44560  0.53740  0.77520  Biso   1.000  C
  C49      1.0000 0.32050  0.01600  0.41350  Biso   1.000  C
  C50      1.0000 0.41350  0.32050  0.01600  Biso   1.000  C
  C51      1.0000 0.01600  0.41350  0.32050  Biso   1.000  C
  C52      1.0000 0.82050  0.48400  0.58650  Biso   1.000  C
  C53      1.0000 0.91350  0.17950  0.98400  Biso   1.000  C
  C54      1.0000 0.51600  0.08650  0.67950  Biso   1.000  C
  C55      1.0000 0.67950  0.51600  0.08650  Biso   1.000  C
  C56      1.0000 0.58650  0.82050  0.48400  Biso   1.000  C
  C57      1.0000 0.98400  0.91350  0.17950  Biso   1.000  C
  C58      1.0000 0.17950  0.98400  0.91350  Biso   1.000  C
  C59      1.0000 0.08650  0.67950  0.51600  Biso   1.000  C
  C60      1.0000 0.48400  0.58650  0.82050  Biso   1.000  C
  C61      1.0000 0.42440  0.15430  0.52270  Biso   1.000  C
  C62      1.0000 0.52270  0.42440  0.15430  Biso   1.000  C
  C63      1.0000 0.15430  0.52270  0.42440  Biso   1.000  C
  C64      1.0000 0.92440  0.34570  0.47730  Biso   1.000  C
  C65      1.0000 0.02270  0.07560  0.84570  Biso   1.000  C
  C66      1.0000 0.65430  0.97730  0.57560  Biso   1.000  C
  C67      1.0000 0.57560  0.65430  0.97730  Biso   1.000  C
  C68      1.0000 0.47730  0.92440  0.34570  Biso   1.000  C
  C69      1.0000 0.84570  0.02270  0.07560  Biso   1.000  C
  C70      1.0000 0.07560  0.84570  0.02270  Biso   1.000  C
  C71      1.0000 0.97730  0.57560  0.65430  Biso   1.000  C
  C72      1.0000 0.34570  0.47730  0.92440  Biso   1.000  C
  C73      1.0000 0.46310  0.14030  0.49790  Biso   1.000  C
  C74      1.0000 0.49790  0.46310  0.14030  Biso   1.000  C
  C75      1.0000 0.14030  0.49790  0.46310  Biso   1.000  C
  C76      1.0000 0.96310  0.35970  0.50210  Biso   1.000  C
  C77      1.0000 0.99790  0.03690  0.85970  Biso   1.000  C
  C78      1.0000 0.64030  0.00210  0.53690  Biso   1.000  C
  C79      1.0000 0.53690  0.64030  0.00210  Biso   1.000  C
  C80      1.0000 0.50210  0.96310  0.35970  Biso   1.000  C
  C81      1.0000 0.85970  0.99790  0.03690  Biso   1.000  C
  C82      1.0000 0.03690  0.85970  0.99790  Biso   1.000  C
  C83      1.0000 0.00210  0.53690  0.64030  Biso   1.000  C
  C84      1.0000 0.35970  0.50210  0.96310  Biso   1.000  C
  C85      1.0000 0.49400  0.11250  0.51910  Biso   1.000  C
  C86      1.0000 0.51910  0.49400  0.11250  Biso   1.000  C
  C87      1.0000 0.11250  0.51910  0.49400  Biso   1.000  C
  C88      1.0000 0.99400  0.38750  0.48090  Biso   1.000  C
  C89      1.0000 0.01910  0.00600  0.88750  Biso   1.000  C
  C90      1.0000 0.61250  0.98090  0.50600  Biso   1.000  C
  C91      1.0000 0.50600  0.61250  0.98090  Biso   1.000  C
  C92      1.0000 0.48090  0.99400  0.38750  Biso   1.000  C
  C93      1.0000 0.88750  0.01910  0.00600  Biso   1.000  C
  C94      1.0000 0.00600  0.88750  0.01910  Biso   1.000  C
  C95      1.0000 0.98090  0.50600  0.61250  Biso   1.000  C
  C96      1.0000 0.38750  0.48090  0.99400  Biso   1.000  C
  C97      1.0000 0.53050  0.10830  0.49000  Biso   1.000  C
  C98      1.0000 0.49000  0.53050  0.10830  Biso   1.000  C
  C99      1.0000 0.10830  0.49000  0.53050  Biso   1.000  C
  C100     1.0000 0.03050  0.39170  0.51000  Biso   1.000  C
  C101     1.0000 0.99000  0.96950  0.89170  Biso   1.000  C
  C102     1.0000 0.60830  0.01000  0.46950  Biso   1.000  C
  C103     1.0000 0.46950  0.60830  0.01000  Biso   1.000  C
  C104     1.0000 0.51000  0.03050  0.39170  Biso   1.000  C
  C105     1.0000 0.89170  0.99000  0.96950  Biso   1.000  C
  C106     1.0000 0.96950  0.89170  0.99000  Biso   1.000  C
  C107     1.0000 0.01000  0.46950  0.60830  Biso   1.000  C
  C108     1.0000 0.39170  0.51000  0.03050  Biso   1.000  C
  C109     1.0000 0.50630  0.13120  0.56080  Biso   1.000  C
  C110     1.0000 0.56080  0.50630  0.13120  Biso   1.000  C
  C111     1.0000 0.13120  0.56080  0.50630  Biso   1.000  C
  C112     1.0000 0.00630  0.36880  0.43920  Biso   1.000  C
  C113     1.0000 0.06080  0.99370  0.86880  Biso   1.000  C
  C114     1.0000 0.63120  0.93920  0.49370  Biso   1.000  C
  C115     1.0000 0.49370  0.63120  0.93920  Biso   1.000  C
  C116     1.0000 0.43920  0.00630  0.36880  Biso   1.000  C
  C117     1.0000 0.86880  0.06080  0.99370  Biso   1.000  C
  C118     1.0000 0.99370  0.86880  0.06080  Biso   1.000  C
  C119     1.0000 0.93920  0.49370  0.63120  Biso   1.000  C
  C120     1.0000 0.36880  0.43920  0.00630  Biso   1.000  C
  C121     1.0000 0.25750  0.99550  0.57240  Biso   1.000  C
  C122     1.0000 0.57240  0.25750  0.99550  Biso   1.000  C
  C123     1.0000 0.99550  0.57240  0.25750  Biso   1.000  C
  C124     1.0000 0.75750  0.50450  0.42760  Biso   1.000  C
  C125     1.0000 0.07240  0.24250  0.00450  Biso   1.000  C
  C126     1.0000 0.49550  0.92760  0.74250  Biso   1.000  C
  C127     1.0000 0.74250  0.49550  0.92760  Biso   1.000  C
  C128     1.0000 0.42760  0.75750  0.50450  Biso   1.000  C
  C129     1.0000 0.00450  0.07240  0.24250  Biso   1.000  C
  C130     1.0000 0.24250  0.00450  0.07240  Biso   1.000  C
  C131     1.0000 0.92760  0.74250  0.49550  Biso   1.000  C
  C132     1.0000 0.50450  0.42760  0.75750  Biso   1.000  C
  C133     1.0000 0.26940  0.95490  0.59500  Biso   1.000  C
  C134     1.0000 0.59500  0.26940  0.95490  Biso   1.000  C
  C135     1.0000 0.95490  0.59500  0.26940  Biso   1.000  C
  C136     1.0000 0.76940  0.54510  0.40500  Biso   1.000  C
  C137     1.0000 0.09500  0.23060  0.04510  Biso   1.000  C
  C138     1.0000 0.45490  0.90500  0.73060  Biso   1.000  C
  C139     1.0000 0.73060  0.45490  0.90500  Biso   1.000  C
  C140     1.0000 0.40500  0.76940  0.54510  Biso   1.000  C
  C141     1.0000 0.04510  0.09500  0.23060  Biso   1.000  C
  C142     1.0000 0.23060  0.04510  0.09500  Biso   1.000  C
  C143     1.0000 0.90500  0.73060  0.45490  Biso   1.000  C
  C144     1.0000 0.54510  0.40500  0.76940  Biso   1.000  C
  C145     1.0000 0.29400  0.92300  0.57200  Biso   1.000  C
  C146     1.0000 0.57200  0.29400  0.92300  Biso   1.000  C
  C147     1.0000 0.92300  0.57200  0.29400  Biso   1.000  C
  C148     1.0000 0.79400  0.57700  0.42800  Biso   1.000  C
  C149     1.0000 0.07200  0.20600  0.07700  Biso   1.000  C
  C150     1.0000 0.42300  0.92800  0.70600  Biso   1.000  C
  C151     1.0000 0.70600  0.42300  0.92800  Biso   1.000  C
  C152     1.0000 0.42800  0.79400  0.57700  Biso   1.000  C
  C153     1.0000 0.07700  0.07200  0.20600  Biso   1.000  C
  C154     1.0000 0.20600  0.07700  0.07200  Biso   1.000  C
  C155     1.0000 0.92800  0.70600  0.42300  Biso   1.000  C
  C156     1.0000 0.57700  0.42800  0.79400  Biso   1.000  C
  C157     1.0000 0.29730  0.88500  0.60080  Biso   1.000  C
  C158     1.0000 0.60080  0.29730  0.88500  Biso   1.000  C
  C159     1.0000 0.88500  0.60080  0.29730  Biso   1.000  C
  C160     1.0000 0.79730  0.61500  0.39920  Biso   1.000  C
  C161     1.0000 0.10080  0.20270  0.11500  Biso   1.000  C
  C162     1.0000 0.38500  0.89920  0.70270  Biso   1.000  C
  C163     1.0000 0.70270  0.38500  0.89920  Biso   1.000  C
  C164     1.0000 0.39920  0.79730  0.61500  Biso   1.000  C
  C165     1.0000 0.11500  0.10080  0.20270  Biso   1.000  C
  C166     1.0000 0.20270  0.11500  0.10080  Biso   1.000  C
  C167     1.0000 0.89920  0.70270  0.38500  Biso   1.000  C
  C168     1.0000 0.61500  0.39920  0.79730  Biso   1.000  C
  C169     1.0000 0.27570  0.91130  0.52950  Biso   1.000  C
  C170     1.0000 0.52950  0.27570  0.91130  Biso   1.000  C
  C171     1.0000 0.91130  0.52950  0.27570  Biso   1.000  C
  C172     1.0000 0.77570  0.58870  0.47050  Biso   1.000  C
  C173     1.0000 0.02950  0.22430  0.08870  Biso   1.000  C
  C174     1.0000 0.41130  0.97050  0.72430  Biso   1.000  C
  C175     1.0000 0.72430  0.41130  0.97050  Biso   1.000  C
  C176     1.0000 0.47050  0.77570  0.58870  Biso   1.000  C
  C177     1.0000 0.08870  0.02950  0.22430  Biso   1.000  C
  C178     1.0000 0.22430  0.08870  0.02950  Biso   1.000  C
  C179     1.0000 0.97050  0.72430  0.41130  Biso   1.000  C
  C180     1.0000 0.58870  0.47050  0.77570  Biso   1.000  C
  C181     1.0000 0.32410  0.05280  0.70960  Biso   1.000  C
  C182     1.0000 0.70960  0.32410  0.05280  Biso   1.000  C
  C183     1.0000 0.05280  0.70960  0.32410  Biso   1.000  C
  C184     1.0000 0.82410  0.44720  0.29040  Biso   1.000  C
  C185     1.0000 0.20960  0.17590  0.94720  Biso   1.000  C
  C186     1.0000 0.55280  0.79040  0.67590  Biso   1.000  C
  C187     1.0000 0.67590  0.55280  0.79040  Biso   1.000  C
  C188     1.0000 0.29040  0.82410  0.44720  Biso   1.000  C
  C189     1.0000 0.94720  0.20960  0.17590  Biso   1.000  C
  C190     1.0000 0.17590  0.94720  0.20960  Biso   1.000  C
  C191     1.0000 0.79040  0.67590  0.55280  Biso   1.000  C
  C192     1.0000 0.44720  0.29040  0.82410  Biso   1.000  C
  C193     1.0000 0.32670  0.08880  0.67800  Biso   1.000  C
  C194     1.0000 0.67800  0.32670  0.08880  Biso   1.000  C
  C195     1.0000 0.08880  0.67800  0.32670  Biso   1.000  C
  C196     1.0000 0.82670  0.41120  0.32200  Biso   1.000  C
  C197     1.0000 0.17800  0.17330  0.91120  Biso   1.000  C
  C198     1.0000 0.58880  0.82200  0.67330  Biso   1.000  C
  C199     1.0000 0.67330  0.58880  0.82200  Biso   1.000  C
  C200     1.0000 0.32200  0.82670  0.41120  Biso   1.000  C
  C201     1.0000 0.91120  0.17800  0.17330  Biso   1.000  C
  C202     1.0000 0.17330  0.91120  0.17800  Biso   1.000  C
  C203     1.0000 0.82200  0.67330  0.58880  Biso   1.000  C
  C204     1.0000 0.41120  0.32200  0.82670  Biso   1.000  C
  C205     1.0000 0.36550  0.09500  0.65270  Biso   1.000  C
  C206     1.0000 0.65270  0.36550  0.09500  Biso   1.000  C
  C207     1.0000 0.09500  0.65270  0.36550  Biso   1.000  C
  C208     1.0000 0.86550  0.40500  0.34730  Biso   1.000  C
  C209     1.0000 0.15270  0.13450  0.90500  Biso   1.000  C
  C210     1.0000 0.59500  0.84730  0.63450  Biso   1.000  C
  C211     1.0000 0.63450  0.59500  0.84730  Biso   1.000  C
  C212     1.0000 0.34730  0.86550  0.40500  Biso   1.000  C
  C213     1.0000 0.90500  0.15270  0.13450  Biso   1.000  C
  C214     1.0000 0.13450  0.90500  0.15270  Biso   1.000  C
  C215     1.0000 0.84730  0.63450  0.59500  Biso   1.000  C
  C216     1.0000 0.40500  0.34730  0.86550  Biso   1.000  C
  C217     1.0000 0.36720  0.13630  0.62990  Biso   1.000  C
  C218     1.0000 0.62990  0.36720  0.13630  Biso   1.000  C
  C219     1.0000 0.13630  0.62990  0.36720  Biso   1.000  C
  C220     1.0000 0.86720  0.36370  0.37010  Biso   1.000  C
  C221     1.0000 0.12990  0.13280  0.86370  Biso   1.000  C
  C222     1.0000 0.63630  0.87010  0.63280  Biso   1.000  C
  C223     1.0000 0.63280  0.63630  0.87010  Biso   1.000  C
  C224     1.0000 0.37010  0.86720  0.36370  Biso   1.000  C
  C225     1.0000 0.86370  0.12990  0.13280  Biso   1.000  C
  C226     1.0000 0.13280  0.86370  0.12990  Biso   1.000  C
  C227     1.0000 0.87010  0.63280  0.63630  Biso   1.000  C
  C228     1.0000 0.36370  0.37010  0.86720  Biso   1.000  C
  C229     1.0000 0.40500  0.09120  0.67820  Biso   1.000  C
  C230     1.0000 0.67820  0.40500  0.09120  Biso   1.000  C
  C231     1.0000 0.09120  0.67820  0.40500  Biso   1.000  C
  C232     1.0000 0.90500  0.40880  0.32180  Biso   1.000  C
  C233     1.0000 0.17820  0.09500  0.90880  Biso   1.000  C
  C234     1.0000 0.59120  0.82180  0.59500  Biso   1.000  C
  C235     1.0000 0.59500  0.59120  0.82180  Biso   1.000  C
  C236     1.0000 0.32180  0.90500  0.40880  Biso   1.000  C
  C237     1.0000 0.90880  0.17820  0.09500  Biso   1.000  C
  C238     1.0000 0.09500  0.90880  0.17820  Biso   1.000  C
  C239     1.0000 0.82180  0.59500  0.59120  Biso   1.000  C
  C240     1.0000 0.40880  0.32180  0.90500  Biso   1.000  C
  C241     1.0000 0.00530  0.03550  0.75170  Biso   1.000  C
  C242     1.0000 0.75170  0.00530  0.03550  Biso   1.000  C
  C243     1.0000 0.03550  0.75170  0.00530  Biso   1.000  C
  C244     1.0000 0.50530  0.46450  0.24830  Biso   1.000  C
  C245     1.0000 0.25170  0.49470  0.96450  Biso   1.000  C
  C246     1.0000 0.53550  0.74830  0.99470  Biso   1.000  C
  C247     1.0000 0.99470  0.53550  0.74830  Biso   1.000  C
  C248     1.0000 0.24830  0.50530  0.46450  Biso   1.000  C
  C249     1.0000 0.96450  0.25170  0.49470  Biso   1.000  C
  C250     1.0000 0.49470  0.96450  0.25170  Biso   1.000  C
  C251     1.0000 0.74830  0.99470  0.53550  Biso   1.000  C
  C252     1.0000 0.46450  0.24830  0.50530  Biso   1.000  C
  C253     1.0000 0.05130  0.03020  0.74060  Biso   1.000  C
  C254     1.0000 0.74060  0.05130  0.03020  Biso   1.000  C
  C255     1.0000 0.03020  0.74060  0.05130  Biso   1.000  C
  C256     1.0000 0.55130  0.46980  0.25940  Biso   1.000  C
  C257     1.0000 0.24060  0.44870  0.96980  Biso   1.000  C
  C258     1.0000 0.53020  0.75940  0.94870  Biso   1.000  C
  C259     1.0000 0.94870  0.53020  0.75940  Biso   1.000  C
  C260     1.0000 0.25940  0.55130  0.46980  Biso   1.000  C
  C261     1.0000 0.96980  0.24060  0.44870  Biso   1.000  C
  C262     1.0000 0.44870  0.96980  0.24060  Biso   1.000  C
  C263     1.0000 0.75940  0.94870  0.53020  Biso   1.000  C
  C264     1.0000 0.46980  0.25940  0.55130  Biso   1.000  C
  C265     1.0000 0.06110  0.00920  0.70030  Biso   1.000  C
  C266     1.0000 0.70030  0.06110  0.00920  Biso   1.000  C
  C267     1.0000 0.00920  0.70030  0.06110  Biso   1.000  C
  C268     1.0000 0.56110  0.49080  0.29970  Biso   1.000  C
  C269     1.0000 0.20030  0.43890  0.99080  Biso   1.000  C
  C270     1.0000 0.50920  0.79970  0.93890  Biso   1.000  C
  C271     1.0000 0.93890  0.50920  0.79970  Biso   1.000  C
  C272     1.0000 0.29970  0.56110  0.49080  Biso   1.000  C
  C273     1.0000 0.99080  0.20030  0.43890  Biso   1.000  C
  C274     1.0000 0.43890  0.99080  0.20030  Biso   1.000  C
  C275     1.0000 0.79970  0.93890  0.50920  Biso   1.000  C
  C276     1.0000 0.49080  0.29970  0.56110  Biso   1.000  C
  C277     1.0000 0.10750  0.00240  0.69790  Biso   1.000  C
  C278     1.0000 0.69790  0.10750  0.00240  Biso   1.000  C
  C279     1.0000 0.00240  0.69790  0.10750  Biso   1.000  C
  C280     1.0000 0.60750  0.49760  0.30210  Biso   1.000  C
  C281     1.0000 0.19790  0.39250  0.99760  Biso   1.000  C
  C282     1.0000 0.50240  0.80210  0.89250  Biso   1.000  C
  C283     1.0000 0.89250  0.50240  0.80210  Biso   1.000  C
  C284     1.0000 0.30210  0.60750  0.49760  Biso   1.000  C
  C285     1.0000 0.99760  0.19790  0.39250  Biso   1.000  C
  C286     1.0000 0.39250  0.99760  0.19790  Biso   1.000  C
  C287     1.0000 0.80210  0.89250  0.50240  Biso   1.000  C
  C288     1.0000 0.49760  0.30210  0.60750  Biso   1.000  C
  C289     1.0000 0.03740  0.96830  0.69770  Biso   1.000  C
  C290     1.0000 0.69770  0.03740  0.96830  Biso   1.000  C
  C291     1.0000 0.96830  0.69770  0.03740  Biso   1.000  C
  C292     1.0000 0.53740  0.53170  0.30230  Biso   1.000  C
  C293     1.0000 0.19770  0.46260  0.03170  Biso   1.000  C
  C294     1.0000 0.46830  0.80230  0.96260  Biso   1.000  C
  C295     1.0000 0.96260  0.46830  0.80230  Biso   1.000  C
  C296     1.0000 0.30230  0.53740  0.53170  Biso   1.000  C
  C297     1.0000 0.03170  0.19770  0.46260  Biso   1.000  C
  C298     1.0000 0.46260  0.03170  0.19770  Biso   1.000  C
  C299     1.0000 0.80230  0.96260  0.46830  Biso   1.000  C
  C300     1.0000 0.53170  0.30230  0.53740  Biso   1.000  C
  C301     1.0000 0.04510  0.16800  0.66420  Biso   1.000  C
  C302     1.0000 0.66420  0.04510  0.16800  Biso   1.000  C
  C303     1.0000 0.16800  0.66420  0.04510  Biso   1.000  C
  C304     1.0000 0.54510  0.33200  0.33580  Biso   1.000  C
  C305     1.0000 0.16420  0.45490  0.83200  Biso   1.000  C
  C306     1.0000 0.66800  0.83580  0.95490  Biso   1.000  C
  C307     1.0000 0.95490  0.66800  0.83580  Biso   1.000  C
  C308     1.0000 0.33580  0.54510  0.33200  Biso   1.000  C
  C309     1.0000 0.83200  0.16420  0.45490  Biso   1.000  C
  C310     1.0000 0.45490  0.83200  0.16420  Biso   1.000  C
  C311     1.0000 0.83580  0.95490  0.66800  Biso   1.000  C
  C312     1.0000 0.33200  0.33580  0.54510  Biso   1.000  C
  C313     1.0000 0.99700  0.17200  0.66470  Biso   1.000  C
  C314     1.0000 0.66470  0.99700  0.17200  Biso   1.000  C
  C315     1.0000 0.17200  0.66470  0.99700  Biso   1.000  C
  C316     1.0000 0.49700  0.32800  0.33530  Biso   1.000  C
  C317     1.0000 0.16470  0.50300  0.82800  Biso   1.000  C
  C318     1.0000 0.67200  0.83530  0.00300  Biso   1.000  C
  C319     1.0000 0.00300  0.67200  0.83530  Biso   1.000  C
  C320     1.0000 0.33530  0.49700  0.32800  Biso   1.000  C
  C321     1.0000 0.82800  0.16470  0.50300  Biso   1.000  C
  C322     1.0000 0.50300  0.82800  0.16470  Biso   1.000  C
  C323     1.0000 0.83530  0.00300  0.67200  Biso   1.000  C
  C324     1.0000 0.32800  0.33530  0.49700  Biso   1.000  C
  C325     1.0000 0.97680  0.17410  0.62270  Biso   1.000  C
  C326     1.0000 0.62270  0.97680  0.17410  Biso   1.000  C
  C327     1.0000 0.17410  0.62270  0.97680  Biso   1.000  C
  C328     1.0000 0.47680  0.32590  0.37730  Biso   1.000  C
  C329     1.0000 0.12270  0.52320  0.82590  Biso   1.000  C
  C330     1.0000 0.67410  0.87730  0.02320  Biso   1.000  C
  C331     1.0000 0.02320  0.67410  0.87730  Biso   1.000  C
  C332     1.0000 0.37730  0.47680  0.32590  Biso   1.000  C
  C333     1.0000 0.82590  0.12270  0.52320  Biso   1.000  C
  C334     1.0000 0.52320  0.82590  0.12270  Biso   1.000  C
  C335     1.0000 0.87730  0.02320  0.67410  Biso   1.000  C
  C336     1.0000 0.32590  0.37730  0.47680  Biso   1.000  C
  C337     1.0000 0.99350  0.20580  0.59280  Biso   1.000  C
  C338     1.0000 0.59280  0.99350  0.20580  Biso   1.000  C
  C339     1.0000 0.20580  0.59280  0.99350  Biso   1.000  C
  C340     1.0000 0.49350  0.29420  0.40720  Biso   1.000  C
  C341     1.0000 0.09280  0.50650  0.79420  Biso   1.000  C
  C342     1.0000 0.70580  0.90720  0.00650  Biso   1.000  C
  C343     1.0000 0.00650  0.70580  0.90720  Biso   1.000  C
  C344     1.0000 0.40720  0.49350  0.29420  Biso   1.000  C
  C345     1.0000 0.79420  0.09280  0.50650  Biso   1.000  C
  C346     1.0000 0.50650  0.79420  0.09280  Biso   1.000  C
  C347     1.0000 0.90720  0.00650  0.70580  Biso   1.000  C
  C348     1.0000 0.29420  0.40720  0.49350  Biso   1.000  C
  C349     1.0000 0.93040  0.18150  0.63110  Biso   1.000  C
  C350     1.0000 0.63110  0.93040  0.18150  Biso   1.000  C
  C351     1.0000 0.18150  0.63110  0.93040  Biso   1.000  C
  C352     1.0000 0.43040  0.31850  0.36890  Biso   1.000  C
  C353     1.0000 0.13110  0.56960  0.81850  Biso   1.000  C
  C354     1.0000 0.68150  0.86890  0.06960  Biso   1.000  C
  C355     1.0000 0.06960  0.68150  0.86890  Biso   1.000  C
  C356     1.0000 0.36890  0.43040  0.31850  Biso   1.000  C
  C357     1.0000 0.81850  0.13110  0.56960  Biso   1.000  C
  C358     1.0000 0.56960  0.81850  0.13110  Biso   1.000  C
  C359     1.0000 0.86890  0.06960  0.68150  Biso   1.000  C
  C360     1.0000 0.31850  0.36890  0.43040  Biso   1.000  C
  C361     1.0000 0.15450  0.97220  0.58870  Biso   1.000  C
  C362     1.0000 0.58870  0.15450  0.97220  Biso   1.000  C
  C363     1.0000 0.97220  0.58870  0.15450  Biso   1.000  C
  C364     1.0000 0.65450  0.52780  0.41130  Biso   1.000  C
  C365     1.0000 0.08870  0.34550  0.02780  Biso   1.000  C
  C366     1.0000 0.47220  0.91130  0.84550  Biso   1.000  C
  C367     1.0000 0.84550  0.47220  0.91130  Biso   1.000  C
  C368     1.0000 0.41130  0.65450  0.52780  Biso   1.000  C
  C369     1.0000 0.02780  0.08870  0.34550  Biso   1.000  C
  C370     1.0000 0.34550  0.02780  0.08870  Biso   1.000  C
  C371     1.0000 0.91130  0.84550  0.47220  Biso   1.000  C
  C372     1.0000 0.52780  0.41130  0.65450  Biso   1.000  C
  C373     1.0000 0.14400  0.95230  0.54720  Biso   1.000  C
  C374     1.0000 0.54720  0.14400  0.95230  Biso   1.000  C
  C375     1.0000 0.95230  0.54720  0.14400  Biso   1.000  C
  C376     1.0000 0.64400  0.54770  0.45280  Biso   1.000  C
  C377     1.0000 0.04720  0.35600  0.04770  Biso   1.000  C
  C378     1.0000 0.45230  0.95280  0.85600  Biso   1.000  C
  C379     1.0000 0.85600  0.45230  0.95280  Biso   1.000  C
  C380     1.0000 0.45280  0.64400  0.54770  Biso   1.000  C
  C381     1.0000 0.04770  0.04720  0.35600  Biso   1.000  C
  C382     1.0000 0.35600  0.04770  0.04720  Biso   1.000  C
  C383     1.0000 0.95280  0.85600  0.45230  Biso   1.000  C
  C384     1.0000 0.54770  0.45280  0.64400  Biso   1.000  C
  C385     1.0000 0.10180  0.93160  0.54430  Biso   1.000  C
  C386     1.0000 0.54430  0.10180  0.93160  Biso   1.000  C
  C387     1.0000 0.93160  0.54430  0.10180  Biso   1.000  C
  C388     1.0000 0.60180  0.56840  0.45570  Biso   1.000  C
  C389     1.0000 0.04430  0.39820  0.06840  Biso   1.000  C
  C390     1.0000 0.43160  0.95570  0.89820  Biso   1.000  C
  C391     1.0000 0.89820  0.43160  0.95570  Biso   1.000  C
  C392     1.0000 0.45570  0.60180  0.56840  Biso   1.000  C
  C393     1.0000 0.06840  0.04430  0.39820  Biso   1.000  C
  C394     1.0000 0.39820  0.06840  0.04430  Biso   1.000  C
  C395     1.0000 0.95570  0.89820  0.43160  Biso   1.000  C
  C396     1.0000 0.56840  0.45570  0.60180  Biso   1.000  C
  C397     1.0000 0.08990  0.90540  0.58310  Biso   1.000  C
  C398     1.0000 0.58310  0.08990  0.90540  Biso   1.000  C
  C399     1.0000 0.90540  0.58310  0.08990  Biso   1.000  C
  C400     1.0000 0.58990  0.59460  0.41690  Biso   1.000  C
  C401     1.0000 0.08310  0.41010  0.09460  Biso   1.000  C
  C402     1.0000 0.40540  0.91690  0.91010  Biso   1.000  C
  C403     1.0000 0.91010  0.40540  0.91690  Biso   1.000  C
  C404     1.0000 0.41690  0.58990  0.59460  Biso   1.000  C
  C405     1.0000 0.09460  0.08310  0.41010  Biso   1.000  C
  C406     1.0000 0.41010  0.09460  0.08310  Biso   1.000  C
  C407     1.0000 0.91690  0.91010  0.40540  Biso   1.000  C
  C408     1.0000 0.59460  0.41690  0.58990  Biso   1.000  C
  C409     1.0000 0.09830  0.90640  0.50390  Biso   1.000  C
  C410     1.0000 0.50390  0.09830  0.90640  Biso   1.000  C
  C411     1.0000 0.90640  0.50390  0.09830  Biso   1.000  C
  C412     1.0000 0.59830  0.59360  0.49610  Biso   1.000  C
  C413     1.0000 0.00390  0.40170  0.09360  Biso   1.000  C
  C414     1.0000 0.40640  0.99610  0.90170  Biso   1.000  C
  C415     1.0000 0.90170  0.40640  0.99610  Biso   1.000  C
  C416     1.0000 0.49610  0.59830  0.59360  Biso   1.000  C
  C417     1.0000 0.09360  0.00390  0.40170  Biso   1.000  C
  C418     1.0000 0.40170  0.09360  0.00390  Biso   1.000  C
  C419     1.0000 0.99610  0.90170  0.40640  Biso   1.000  C
  C420     1.0000 0.59360  0.49610  0.59830  Biso   1.000  C
  C421     1.0000 0.18230  0.09670  0.48080  Biso   1.000  C
  C422     1.0000 0.48080  0.18230  0.09670  Biso   1.000  C
  C423     1.0000 0.09670  0.48080  0.18230  Biso   1.000  C
  C424     1.0000 0.68230  0.40330  0.51920  Biso   1.000  C
  C425     1.0000 0.98080  0.31770  0.90330  Biso   1.000  C
  C426     1.0000 0.59670  0.01920  0.81770  Biso   1.000  C
  C427     1.0000 0.81770  0.59670  0.01920  Biso   1.000  C
  C428     1.0000 0.51920  0.68230  0.40330  Biso   1.000  C
  C429     1.0000 0.90330  0.98080  0.31770  Biso   1.000  C
  C430     1.0000 0.31770  0.90330  0.98080  Biso   1.000  C
  C431     1.0000 0.01920  0.81770  0.59670  Biso   1.000  C
  C432     1.0000 0.40330  0.51920  0.68230  Biso   1.000  C
  C433     1.0000 0.18130  0.11680  0.52410  Biso   1.000  C
  C434     1.0000 0.52410  0.18130  0.11680  Biso   1.000  C
  C435     1.0000 0.11680  0.52410  0.18130  Biso   1.000  C
  C436     1.0000 0.68130  0.38320  0.47590  Biso   1.000  C
  C437     1.0000 0.02410  0.31870  0.88320  Biso   1.000  C
  C438     1.0000 0.61680  0.97590  0.81870  Biso   1.000  C
  C439     1.0000 0.81870  0.61680  0.97590  Biso   1.000  C
  C440     1.0000 0.47590  0.68130  0.38320  Biso   1.000  C
  C441     1.0000 0.88320  0.02410  0.31870  Biso   1.000  C
  C442     1.0000 0.31870  0.88320  0.02410  Biso   1.000  C
  C443     1.0000 0.97590  0.81870  0.61680  Biso   1.000  C
  C444     1.0000 0.38320  0.47590  0.68130  Biso   1.000  C
  C445     1.0000 0.13890  0.13100  0.53640  Biso   1.000  C
  C446     1.0000 0.53640  0.13890  0.13100  Biso   1.000  C
  C447     1.0000 0.13100  0.53640  0.13890  Biso   1.000  C
  C448     1.0000 0.63890  0.36900  0.46360  Biso   1.000  C
  C449     1.0000 0.03640  0.36110  0.86900  Biso   1.000  C
  C450     1.0000 0.63100  0.96360  0.86110  Biso   1.000  C
  C451     1.0000 0.86110  0.63100  0.96360  Biso   1.000  C
  C452     1.0000 0.46360  0.63890  0.36900  Biso   1.000  C
  C453     1.0000 0.86900  0.03640  0.36110  Biso   1.000  C
  C454     1.0000 0.36110  0.86900  0.03640  Biso   1.000  C
  C455     1.0000 0.96360  0.86110  0.63100  Biso   1.000  C
  C456     1.0000 0.36900  0.46360  0.63890  Biso   1.000  C
  C457     1.0000 0.14170  0.15820  0.57480  Biso   1.000  C
  C458     1.0000 0.57480  0.14170  0.15820  Biso   1.000  C
  C459     1.0000 0.15820  0.57480  0.14170  Biso   1.000  C
  C460     1.0000 0.64170  0.34180  0.42520  Biso   1.000  C
  C461     1.0000 0.07480  0.35830  0.84180  Biso   1.000  C
  C462     1.0000 0.65820  0.92520  0.85830  Biso   1.000  C
  C463     1.0000 0.85830  0.65820  0.92520  Biso   1.000  C
  C464     1.0000 0.42520  0.64170  0.34180  Biso   1.000  C
  C465     1.0000 0.84180  0.07480  0.35830  Biso   1.000  C
  C466     1.0000 0.35830  0.84180  0.07480  Biso   1.000  C
  C467     1.0000 0.92520  0.85830  0.65820  Biso   1.000  C
  C468     1.0000 0.34180  0.42520  0.64170  Biso   1.000  C
  C469     1.0000 0.11900  0.15690  0.50190  Biso   1.000  C
  C470     1.0000 0.50190  0.11900  0.15690  Biso   1.000  C
  C471     1.0000 0.15690  0.50190  0.11900  Biso   1.000  C
  C472     1.0000 0.61900  0.34310  0.49810  Biso   1.000  C
  C473     1.0000 0.00190  0.38100  0.84310  Biso   1.000  C
  C474     1.0000 0.65690  0.99810  0.88100  Biso   1.000  C
  C475     1.0000 0.88100  0.65690  0.99810  Biso   1.000  C
  C476     1.0000 0.49810  0.61900  0.34310  Biso   1.000  C
  C477     1.0000 0.84310  0.00190  0.38100  Biso   1.000  C
  C478     1.0000 0.38100  0.84310  0.00190  Biso   1.000  C
  C479     1.0000 0.99810  0.88100  0.65690  Biso   1.000  C
  C480     1.0000 0.34310  0.49810  0.61900  Biso   1.000  C
