data_image0
_cell_length_a       8.371
_cell_length_b       9.7901
_cell_length_c       10.3849
_cell_angle_alpha    90
_cell_angle_beta     112.277
_cell_angle_gamma    90

_symmetry_space_group_name_H-M    "P 1"
_symmetry_int_tables_number       1

loop_
  _symmetry_equiv_pos_as_xyz
  'x, y, z'

loop_
  _atom_site_label
  _atom_site_occupancy
  _atom_site_fract_x
  _atom_site_fract_y
  _atom_site_fract_z
  _atom_site_thermal_displace_type
  _atom_site_B_iso_or_equiv
  _atom_site_type_symbol
  Cu1      1.0000 0.50000  0.50000  0.50000  Biso   1.000  Cu
  Cu2      1.0000 0.50000  0.00000  0.00000  Biso   1.000  Cu
  N1       1.0000 0.55650  0.34290  0.35090  Biso   1.000  N
  N2       1.0000 0.44350  0.84290  0.14910  Biso   1.000  N
  N3       1.0000 0.44350  0.65710  0.64910  Biso   1.000  N
  N4       1.0000 0.55650  0.15710  0.85090  Biso   1.000  N
  N5       1.0000 0.52460  0.15110  0.14500  Biso   1.000  N
  N6       1.0000 0.47540  0.65110  0.35500  Biso   1.000  N
  N7       1.0000 0.47540  0.84890  0.85500  Biso   1.000  N
  N8       1.0000 0.52460  0.34890  0.64500  Biso   1.000  N
  O1       1.0000 0.27040  0.43330  0.38610  Biso   1.000  O
  O2       1.0000 0.72960  0.93330  0.11390  Biso   1.000  O
  O3       1.0000 0.72960  0.56670  0.61390  Biso   1.000  O
  O4       1.0000 0.27040  0.06670  0.88610  Biso   1.000  O
  O5       1.0000 0.11100  0.27900  0.23500  Biso   1.000  O
  O6       1.0000 0.88900  0.77900  0.26500  Biso   1.000  O
  O7       1.0000 0.88900  0.72100  0.76500  Biso   1.000  O
  O8       1.0000 0.11100  0.22100  0.73500  Biso   1.000  O
  C1       1.0000 0.24690  0.34840  0.28990  Biso   1.000  C
  C2       1.0000 0.75310  0.84840  0.21010  Biso   1.000  C
  C3       1.0000 0.75310  0.65160  0.71010  Biso   1.000  C
  C4       1.0000 0.24690  0.15160  0.78990  Biso   1.000  C
  C5       1.0000 0.40330  0.29420  0.26780  Biso   1.000  C
  C6       1.0000 0.59670  0.79420  0.23220  Biso   1.000  C
  C7       1.0000 0.59670  0.70580  0.73220  Biso   1.000  C
  C8       1.0000 0.40330  0.20580  0.76780  Biso   1.000  C
  C9       1.0000 0.38630  0.19870  0.16530  Biso   1.000  C
  C10      1.0000 0.61370  0.69870  0.33470  Biso   1.000  C
  C11      1.0000 0.61370  0.80130  0.83470  Biso   1.000  C
  C12      1.0000 0.38630  0.30130  0.66530  Biso   1.000  C
  H1       1.0000 0.27710  0.16720  0.10960  Biso   1.000  H
  H2       1.0000 0.72290  0.66720  0.39040  Biso   1.000  H
  H3       1.0000 0.72290  0.83280  0.89040  Biso   1.000  H
  H4       1.0000 0.27710  0.33280  0.60960  Biso   1.000  H
  C13      1.0000 0.67680  0.19960  0.22660  Biso   1.000  C
  C14      1.0000 0.32320  0.69960  0.27340  Biso   1.000  C
  C15      1.0000 0.32320  0.80040  0.77340  Biso   1.000  C
  C16      1.0000 0.67680  0.30040  0.72660  Biso   1.000  C
  H5       1.0000 0.77500  0.16820  0.21460  Biso   1.000  H
  H6       1.0000 0.22500  0.66820  0.28540  Biso   1.000  H
  H7       1.0000 0.22500  0.83180  0.78540  Biso   1.000  H
  H8       1.0000 0.77500  0.33180  0.71460  Biso   1.000  H
  C17      1.0000 0.69550  0.29690  0.33080  Biso   1.000  C
  C18      1.0000 0.30450  0.79690  0.16920  Biso   1.000  C
  C19      1.0000 0.30450  0.70310  0.66920  Biso   1.000  C
  C20      1.0000 0.69550  0.20310  0.83080  Biso   1.000  C
  C21      1.0000 0.86760  0.35060  0.42110  Biso   1.000  C
  C22      1.0000 0.13240  0.85060  0.07890  Biso   1.000  C
  C23      1.0000 0.13240  0.64940  0.57890  Biso   1.000  C
  C24      1.0000 0.86760  0.14940  0.92110  Biso   1.000  C
  H9       1.0000 0.85320  0.42830  0.47210  Biso   1.000  H
  H10      1.0000 0.14680  0.92830  0.02790  Biso   1.000  H
  H11      1.0000 0.14680  0.57170  0.52790  Biso   1.000  H
  H12      1.0000 0.85320  0.07170  0.97210  Biso   1.000  H
  H13      1.0000 0.93000  0.37750  0.36440  Biso   1.000  H
  H14      1.0000 0.07000  0.87750  0.13560  Biso   1.000  H
  H15      1.0000 0.07000  0.62250  0.63560  Biso   1.000  H
  H16      1.0000 0.93000  0.12250  0.86440  Biso   1.000  H
  H17      1.0000 0.93090  0.28090  0.48500  Biso   1.000  H
  H18      1.0000 0.06910  0.78090  0.01500  Biso   1.000  H
  H19      1.0000 0.06910  0.71910  0.51500  Biso   1.000  H
  H20      1.0000 0.93090  0.21910  0.98500  Biso   1.000  H
  O9       1.0000 0.84450  0.51710  0.09140  Biso   1.000  O
  O10      1.0000 0.15550  0.01710  0.40860  Biso   1.000  O
  O11      1.0000 0.15550  0.48290  0.90860  Biso   1.000  O
  O12      1.0000 0.84450  0.98290  0.59140  Biso   1.000  O
  H21      1.0000 0.93070  0.46390  0.12480  Biso   1.000  H
  H22      1.0000 0.06930  0.96390  0.37520  Biso   1.000  H
  H23      1.0000 0.06930  0.53610  0.87520  Biso   1.000  H
  H24      1.0000 0.93070  0.03610  0.62480  Biso   1.000  H
  H25      1.0000 0.86310  0.58770  0.14260  Biso   1.000  H
  H26      1.0000 0.13690  0.08770  0.35740  Biso   1.000  H
  H27      1.0000 0.13690  0.41230  0.85740  Biso   1.000  H
  H28      1.0000 0.86310  0.91230  0.64260  Biso   1.000  H
  O13      1.0000 0.49900  0.49080  0.93980  Biso   1.000  O
  O14      1.0000 0.50100  0.99080  0.56020  Biso   1.000  O
  O15      1.0000 0.50100  0.50920  0.06020  Biso   1.000  O
  O16      1.0000 0.49900  0.00920  0.43980  Biso   1.000  O
  H29      1.0000 0.59040  0.50250  0.01210  Biso   1.000  H
  H30      1.0000 0.40960  0.00250  0.48790  Biso   1.000  H
  H31      1.0000 0.40960  0.49750  0.98790  Biso   1.000  H
  H32      1.0000 0.59040  0.99750  0.51210  Biso   1.000  H
  H33      1.0000 0.41220  0.49290  0.96280  Biso   1.000  H
  H34      1.0000 0.58780  0.99290  0.53720  Biso   1.000  H
  H35      1.0000 0.58780  0.50710  0.03720  Biso   1.000  H
  H36      1.0000 0.41220  0.00710  0.46280  Biso   1.000  H
  O17      1.0000 0.10140  0.34300  0.18400  Biso   1.000  O
  O18      1.0000 0.89860  0.84300  0.31600  Biso   1.000  O
  O19      1.0000 0.89860  0.65700  0.81600  Biso   1.000  O
  O20      1.0000 0.10140  0.15700  0.68400  Biso   1.000  O
