data_image0
_cell_length_a       10.015
_cell_length_b       6.6124
_cell_length_c       12.4721
_cell_angle_alpha    90
_cell_angle_beta     109.412
_cell_angle_gamma    90

_symmetry_space_group_name_H-M    "P 1"
_symmetry_int_tables_number       1

loop_
  _symmetry_equiv_pos_as_xyz
  'x, y, z'

loop_
  _atom_site_label
  _atom_site_occupancy
  _atom_site_fract_x
  _atom_site_fract_y
  _atom_site_fract_z
  _atom_site_thermal_displace_type
  _atom_site_B_iso_or_equiv
  _atom_site_type_symbol
  Cu1      1.0000 0.13580  0.75000  0.76730  Biso   1.000  Cu
  Cu2      1.0000 0.86420  0.25000  0.23270  Biso   1.000  Cu
  Cu3      1.0000 0.00000  0.00000  0.50000  Biso   1.000  Cu
  Cu4      1.0000 0.00000  0.50000  0.50000  Biso   1.000  Cu
  C1       1.0000 0.39140  0.75000  0.85470  Biso   1.000  C
  C2       1.0000 0.60860  0.25000  0.14530  Biso   1.000  C
  C3       1.0000 0.55070  0.75000  0.89980  Biso   1.000  C
  C4       1.0000 0.44930  0.25000  0.10020  Biso   1.000  C
  C5       1.0000 0.62940  0.75000  0.82920  Biso   1.000  C
  C6       1.0000 0.37060  0.25000  0.17080  Biso   1.000  C
  H1       1.0000 0.58160  0.75000  0.75120  Biso   1.000  H
  H2       1.0000 0.41840  0.25000  0.24880  Biso   1.000  H
  C7       1.0000 0.77790  0.75000  0.86670  Biso   1.000  C
  C8       1.0000 0.22210  0.25000  0.13330  Biso   1.000  C
  C9       1.0000 0.84670  0.75000  0.98480  Biso   1.000  C
  C10      1.0000 0.15330  0.25000  0.01520  Biso   1.000  C
  H3       1.0000 0.94510  0.75000  0.01370  Biso   1.000  H
  H4       1.0000 0.05490  0.25000  0.98630  Biso   1.000  H
  C11      1.0000 0.76910  0.75000  0.05910  Biso   1.000  C
  C12      1.0000 0.23090  0.25000  0.94090  Biso   1.000  C
  C13      1.0000 0.62670  0.75000  0.01700  Biso   1.000  C
  C14      1.0000 0.37330  0.25000  0.98300  Biso   1.000  C
  H5       1.0000 0.57640  0.75000  0.06770  Biso   1.000  H
  H6       1.0000 0.42360  0.25000  0.93230  Biso   1.000  H
  C15      1.0000 0.86210  0.75000  0.79020  Biso   1.000  C
  C16      1.0000 0.13790  0.25000  0.20980  Biso   1.000  C
  C17      1.0000 0.83880  0.75000  0.18720  Biso   1.000  C
  C18      1.0000 0.16120  0.25000  0.81280  Biso   1.000  C
  N1       1.0000 0.87510  0.91800  0.24840  Biso   1.000  N
  N2       1.0000 0.12490  0.41800  0.75160  Biso   1.000  N
  N3       1.0000 0.12490  0.08200  0.75160  Biso   1.000  N
  N4       1.0000 0.87510  0.58200  0.24840  Biso   1.000  N
  N5       1.0000 0.93050  0.84890  0.35440  Biso   1.000  N
  N6       1.0000 0.06950  0.34890  0.64560  Biso   1.000  N
  N7       1.0000 0.06950  0.15110  0.64560  Biso   1.000  N
  N8       1.0000 0.93050  0.65110  0.35440  Biso   1.000  N
  O1       1.0000 0.32660  0.75000  0.92520  Biso   1.000  O
  O2       1.0000 0.67340  0.25000  0.07480  Biso   1.000  O
  O3       1.0000 0.32650  0.75000  0.74840  Biso   1.000  O
  O4       1.0000 0.67350  0.25000  0.25160  Biso   1.000  O
  O5       1.0000 0.79990  0.75000  0.68370  Biso   1.000  O
  O6       1.0000 0.20010  0.25000  0.31630  Biso   1.000  O
  O7       1.0000 0.99640  0.75000  0.83680  Biso   1.000  O
  O8       1.0000 0.00360  0.25000  0.16320  Biso   1.000  O
  O9       1.0000 0.00500  0.75000  0.58350  Biso   1.000  O
  O10      1.0000 0.99500  0.25000  0.41650  Biso   1.000  O
  H7       1.0000 0.92210  0.75000  0.58790  Biso   1.000  H
  H8       1.0000 0.07790  0.25000  0.41210  Biso   1.000  H
  O11      1.0000 0.74570  0.04400  0.48180  Biso   1.000  O
  O12      1.0000 0.25430  0.54400  0.51820  Biso   1.000  O
  O13      1.0000 0.25430  0.95600  0.51820  Biso   1.000  O
  O14      1.0000 0.74570  0.45600  0.48180  Biso   1.000  O
  H9       1.0000 0.72410  0.05390  0.41010  Biso   1.000  H
  H10      1.0000 0.27590  0.55390  0.58990  Biso   1.000  H
  H11      1.0000 0.27590  0.94610  0.58990  Biso   1.000  H
  H12      1.0000 0.72410  0.44610  0.41010  Biso   1.000  H
  H13      1.0000 0.71970  0.14180  0.51430  Biso   1.000  H
  H14      1.0000 0.28030  0.64180  0.48570  Biso   1.000  H
  H15      1.0000 0.28030  0.85820  0.48570  Biso   1.000  H
  H16      1.0000 0.71970  0.35820  0.51430  Biso   1.000  H
  H17      1.0000 0.75380  0.16290  0.50890  Biso   1.000  H
  H18      1.0000 0.24620  0.66290  0.49110  Biso   1.000  H
  H19      1.0000 0.24620  0.83710  0.49110  Biso   1.000  H
  H20      1.0000 0.75380  0.33710  0.50890  Biso   1.000  H
  O15      1.0000 0.58100  0.75000  0.33800  Biso   1.000  O
  O16      1.0000 0.41900  0.25000  0.66200  Biso   1.000  O
  O17      1.0000 0.26700  0.75000  0.12800  Biso   1.000  O
  O18      1.0000 0.73300  0.25000  0.87200  Biso   1.000  O
  O19      1.0000 0.29600  0.75000  0.35600  Biso   1.000  O
  O20      1.0000 0.70400  0.25000  0.64400  Biso   1.000  O
