data_image0
_cell_length_a       15.814
_cell_length_b       15.9037
_cell_length_c       18.4974
_cell_angle_alpha    90
_cell_angle_beta     90
_cell_angle_gamma    90

_symmetry_space_group_name_H-M    "P 1"
_symmetry_int_tables_number       1

loop_
  _symmetry_equiv_pos_as_xyz
  'x, y, z'

loop_
  _atom_site_label
  _atom_site_occupancy
  _atom_site_fract_x
  _atom_site_fract_y
  _atom_site_fract_z
  _atom_site_thermal_displace_type
  _atom_site_B_iso_or_equiv
  _atom_site_type_symbol
  C1       1.0000 0.71150  0.11650  0.17180  Biso   1.000  C
  C2       1.0000 0.21150  0.61650  0.32820  Biso   1.000  C
  C3       1.0000 0.78850  0.11650  0.67180  Biso   1.000  C
  C4       1.0000 0.28850  0.61650  0.82820  Biso   1.000  C
  C5       1.0000 0.70980  0.11820  0.31140  Biso   1.000  C
  C6       1.0000 0.20980  0.61820  0.18860  Biso   1.000  C
  C7       1.0000 0.79020  0.11820  0.81140  Biso   1.000  C
  C8       1.0000 0.29020  0.61820  0.68860  Biso   1.000  C
  C9       1.0000 0.74610  0.16040  0.24270  Biso   1.000  C
  C10      1.0000 0.24610  0.66040  0.25730  Biso   1.000  C
  C11      1.0000 0.75390  0.16040  0.74270  Biso   1.000  C
  C12      1.0000 0.25390  0.66040  0.75730  Biso   1.000  C
  H1       1.0000 0.73380  0.22080  0.24230  Biso   1.000  H
  H2       1.0000 0.23380  0.72080  0.25770  Biso   1.000  H
  H3       1.0000 0.76620  0.22080  0.74230  Biso   1.000  H
  H4       1.0000 0.26620  0.72080  0.75770  Biso   1.000  H
  C13      1.0000 0.84630  0.14390  0.24120  Biso   1.000  C
  C14      1.0000 0.34630  0.64390  0.25880  Biso   1.000  C
  C15      1.0000 0.65370  0.14390  0.74120  Biso   1.000  C
  C16      1.0000 0.15370  0.64390  0.75880  Biso   1.000  C
  H5       1.0000 0.86900  0.16260  0.19580  Biso   1.000  H
  H6       1.0000 0.36900  0.66260  0.30420  Biso   1.000  H
  H7       1.0000 0.63100  0.16260  0.69580  Biso   1.000  H
  H8       1.0000 0.13100  0.66260  0.80420  Biso   1.000  H
  H9       1.0000 0.85710  0.08480  0.24690  Biso   1.000  H
  H10      1.0000 0.35710  0.58480  0.25310  Biso   1.000  H
  H11      1.0000 0.64290  0.08480  0.74690  Biso   1.000  H
  H12      1.0000 0.14290  0.58480  0.75310  Biso   1.000  H
  H13      1.0000 0.87270  0.17430  0.27990  Biso   1.000  H
  H14      1.0000 0.37270  0.67430  0.22010  Biso   1.000  H
  H15      1.0000 0.62730  0.17430  0.77990  Biso   1.000  H
  H16      1.0000 0.12730  0.67430  0.72010  Biso   1.000  H
  C17      1.0000 0.39940  0.03630  0.16720  Biso   1.000  C
  C18      1.0000 0.89940  0.53630  0.33280  Biso   1.000  C
  C19      1.0000 0.10060  0.03630  0.66720  Biso   1.000  C
  C20      1.0000 0.60060  0.53630  0.83280  Biso   1.000  C
  H17      1.0000 0.39130  0.01220  0.21240  Biso   1.000  H
  H18      1.0000 0.89130  0.51220  0.28760  Biso   1.000  H
  H19      1.0000 0.10870  0.01220  0.71240  Biso   1.000  H
  H20      1.0000 0.60870  0.51220  0.78760  Biso   1.000  H
  C21      1.0000 0.34940  0.01000  0.11060  Biso   1.000  C
  C22      1.0000 0.84940  0.51000  0.38940  Biso   1.000  C
  C23      1.0000 0.15060  0.01000  0.61060  Biso   1.000  C
  C24      1.0000 0.65060  0.51000  0.88940  Biso   1.000  C
  H21      1.0000 0.30940  0.96780  0.11760  Biso   1.000  H
  H22      1.0000 0.80940  0.46780  0.38240  Biso   1.000  H
  H23      1.0000 0.19060  0.96780  0.61760  Biso   1.000  H
  H24      1.0000 0.69060  0.46780  0.88240  Biso   1.000  H
  C25      1.0000 0.35930  0.04710  0.04280  Biso   1.000  C
  C26      1.0000 0.85930  0.54710  0.45720  Biso   1.000  C
  C27      1.0000 0.14070  0.04710  0.54280  Biso   1.000  C
  C28      1.0000 0.64070  0.54710  0.95720  Biso   1.000  C
  C29      1.0000 0.41910  0.10910  0.03600  Biso   1.000  C
  C30      1.0000 0.91910  0.60910  0.46400  Biso   1.000  C
  C31      1.0000 0.08090  0.10910  0.53600  Biso   1.000  C
  C32      1.0000 0.58090  0.60910  0.96400  Biso   1.000  C
  H25      1.0000 0.42650  0.13670  0.99210  Biso   1.000  H
  H26      1.0000 0.92650  0.63670  0.50790  Biso   1.000  H
  H27      1.0000 0.07350  0.13670  0.49210  Biso   1.000  H
  H28      1.0000 0.57350  0.63670  0.00790  Biso   1.000  H
  C33      1.0000 0.46850  0.13030  0.09570  Biso   1.000  C
  C34      1.0000 0.96850  0.63030  0.40430  Biso   1.000  C
  C35      1.0000 0.03150  0.13030  0.59570  Biso   1.000  C
  C36      1.0000 0.53150  0.63030  0.90430  Biso   1.000  C
  H29      1.0000 0.50990  0.17120  0.08980  Biso   1.000  H
  H30      1.0000 0.00990  0.67120  0.41020  Biso   1.000  H
  H31      1.0000 0.99010  0.17120  0.58980  Biso   1.000  H
  H32      1.0000 0.49010  0.67120  0.91020  Biso   1.000  H
  C37      1.0000 0.30760  0.01720  0.97960  Biso   1.000  C
  C38      1.0000 0.80760  0.51720  0.52040  Biso   1.000  C
  C39      1.0000 0.19240  0.01720  0.47960  Biso   1.000  C
  C40      1.0000 0.69240  0.51720  0.02040  Biso   1.000  C
  C41      1.0000 0.23630  0.96670  0.98760  Biso   1.000  C
  C42      1.0000 0.73630  0.46670  0.51240  Biso   1.000  C
  C43      1.0000 0.26370  0.96670  0.48760  Biso   1.000  C
  C44      1.0000 0.76370  0.46670  0.01240  Biso   1.000  C
  H33      1.0000 0.21850  0.95160  0.03380  Biso   1.000  H
  H34      1.0000 0.71850  0.45160  0.46620  Biso   1.000  H
  H35      1.0000 0.28150  0.95160  0.53380  Biso   1.000  H
  H36      1.0000 0.78150  0.45160  0.96620  Biso   1.000  H
  C45      1.0000 0.19320  0.93960  0.93050  Biso   1.000  C
  C46      1.0000 0.69320  0.43960  0.56950  Biso   1.000  C
  C47      1.0000 0.30680  0.93960  0.43050  Biso   1.000  C
  C48      1.0000 0.80680  0.43960  0.06950  Biso   1.000  C
  H37      1.0000 0.14550  0.90680  0.93890  Biso   1.000  H
  H38      1.0000 0.64550  0.40680  0.56110  Biso   1.000  H
  H39      1.0000 0.35450  0.90680  0.43890  Biso   1.000  H
  H40      1.0000 0.85450  0.40680  0.06110  Biso   1.000  H
  C49      1.0000 0.27990  0.00390  0.85430  Biso   1.000  C
  C50      1.0000 0.77990  0.50390  0.64570  Biso   1.000  C
  C51      1.0000 0.22010  0.00390  0.35430  Biso   1.000  C
  C52      1.0000 0.72010  0.50390  0.14570  Biso   1.000  C
  H41      1.0000 0.29520  0.01810  0.80730  Biso   1.000  H
  H42      1.0000 0.79520  0.51810  0.69270  Biso   1.000  H
  H43      1.0000 0.20480  0.01810  0.30730  Biso   1.000  H
  H44      1.0000 0.70480  0.51810  0.19270  Biso   1.000  H
  C53      1.0000 0.32860  0.03450  0.90960  Biso   1.000  C
  C54      1.0000 0.82860  0.53450  0.59040  Biso   1.000  C
  C55      1.0000 0.17140  0.03450  0.40960  Biso   1.000  C
  C56      1.0000 0.67140  0.53450  0.09040  Biso   1.000  C
  H45      1.0000 0.37590  0.06710  0.89950  Biso   1.000  H
  H46      1.0000 0.87590  0.56710  0.60050  Biso   1.000  H
  H47      1.0000 0.12410  0.06710  0.39950  Biso   1.000  H
  H48      1.0000 0.62410  0.56710  0.10050  Biso   1.000  H
  C57      1.0000 0.46990  0.09390  0.38070  Biso   1.000  C
  C58      1.0000 0.96990  0.59390  0.11930  Biso   1.000  C
  C59      1.0000 0.03010  0.09390  0.88070  Biso   1.000  C
  C60      1.0000 0.53010  0.59390  0.61930  Biso   1.000  C
  H49      1.0000 0.51350  0.05520  0.38620  Biso   1.000  H
  H50      1.0000 0.01350  0.55520  0.11380  Biso   1.000  H
  H51      1.0000 0.98650  0.05520  0.88620  Biso   1.000  H
  H52      1.0000 0.48650  0.55520  0.61380  Biso   1.000  H
  C61      1.0000 0.41990  0.11230  0.44120  Biso   1.000  C
  C62      1.0000 0.91990  0.61230  0.05880  Biso   1.000  C
  C63      1.0000 0.08010  0.11230  0.94120  Biso   1.000  C
  C64      1.0000 0.58010  0.61230  0.55880  Biso   1.000  C
  H53      1.0000 0.42980  0.08540  0.48500  Biso   1.000  H
  H54      1.0000 0.92980  0.58540  0.01500  Biso   1.000  H
  H55      1.0000 0.07020  0.08540  0.98500  Biso   1.000  H
  H56      1.0000 0.57020  0.58540  0.51500  Biso   1.000  H
  C65      1.0000 0.35520  0.17100  0.43510  Biso   1.000  C
  C66      1.0000 0.85520  0.67100  0.06490  Biso   1.000  C
  C67      1.0000 0.14480  0.17100  0.93510  Biso   1.000  C
  C68      1.0000 0.64480  0.67100  0.56490  Biso   1.000  C
  C69      1.0000 0.34280  0.20540  0.36630  Biso   1.000  C
  C70      1.0000 0.84280  0.70540  0.13370  Biso   1.000  C
  C71      1.0000 0.15720  0.20540  0.86630  Biso   1.000  C
  C72      1.0000 0.65720  0.70540  0.63370  Biso   1.000  C
  H57      1.0000 0.29950  0.24390  0.35850  Biso   1.000  H
  H58      1.0000 0.79950  0.74390  0.14150  Biso   1.000  H
  H59      1.0000 0.20050  0.24390  0.85850  Biso   1.000  H
  H60      1.0000 0.70050  0.74390  0.64150  Biso   1.000  H
  C73      1.0000 0.39550  0.18190  0.30990  Biso   1.000  C
  C74      1.0000 0.89550  0.68190  0.19010  Biso   1.000  C
  C75      1.0000 0.10450  0.18190  0.80990  Biso   1.000  C
  C76      1.0000 0.60450  0.68190  0.69010  Biso   1.000  C
  H61      1.0000 0.38560  0.20530  0.26460  Biso   1.000  H
  H62      1.0000 0.88560  0.70530  0.23540  Biso   1.000  H
  H63      1.0000 0.11440  0.20530  0.76460  Biso   1.000  H
  H64      1.0000 0.61440  0.70530  0.73540  Biso   1.000  H
  C77      1.0000 0.30680  0.19860  0.49830  Biso   1.000  C
  C78      1.0000 0.80680  0.69860  0.00170  Biso   1.000  C
  C79      1.0000 0.19320  0.19860  0.99830  Biso   1.000  C
  C80      1.0000 0.69320  0.69860  0.50170  Biso   1.000  C
  C81      1.0000 0.32120  0.16650  0.56550  Biso   1.000  C
  C82      1.0000 0.82120  0.66650  0.93450  Biso   1.000  C
  C83      1.0000 0.17880  0.16650  0.06550  Biso   1.000  C
  C84      1.0000 0.67880  0.66650  0.43450  Biso   1.000  C
  H65      1.0000 0.36090  0.12410  0.57200  Biso   1.000  H
  H66      1.0000 0.86090  0.62410  0.92800  Biso   1.000  H
  H67      1.0000 0.13910  0.12410  0.07200  Biso   1.000  H
  H68      1.0000 0.63910  0.62410  0.42800  Biso   1.000  H
  C85      1.0000 0.27610  0.19750  0.62440  Biso   1.000  C
  C86      1.0000 0.77610  0.69750  0.87560  Biso   1.000  C
  C87      1.0000 0.22390  0.19750  0.12440  Biso   1.000  C
  C88      1.0000 0.72390  0.69750  0.37560  Biso   1.000  C
  H69      1.0000 0.28620  0.17350  0.66940  Biso   1.000  H
  H70      1.0000 0.78620  0.67350  0.83060  Biso   1.000  H
  H71      1.0000 0.21380  0.17350  0.16940  Biso   1.000  H
  H72      1.0000 0.71380  0.67350  0.33060  Biso   1.000  H
  C89      1.0000 0.20610  0.28920  0.55370  Biso   1.000  C
  C90      1.0000 0.70610  0.78920  0.94630  Biso   1.000  C
  C91      1.0000 0.29390  0.28920  0.05370  Biso   1.000  C
  C92      1.0000 0.79390  0.78920  0.44630  Biso   1.000  C
  H73      1.0000 0.16720  0.33270  0.54860  Biso   1.000  H
  H74      1.0000 0.66720  0.83270  0.95140  Biso   1.000  H
  H75      1.0000 0.33280  0.33270  0.04860  Biso   1.000  H
  H76      1.0000 0.83280  0.83270  0.45140  Biso   1.000  H
  C93      1.0000 0.24500  0.26080  0.49320  Biso   1.000  C
  C94      1.0000 0.74500  0.76080  0.00680  Biso   1.000  C
  C95      1.0000 0.25500  0.26080  0.99320  Biso   1.000  C
  C96      1.0000 0.75500  0.76080  0.50680  Biso   1.000  C
  H77      1.0000 0.23050  0.28270  0.44830  Biso   1.000  H
  H78      1.0000 0.73050  0.78270  0.05170  Biso   1.000  H
  H79      1.0000 0.26950  0.28270  0.94830  Biso   1.000  H
  H80      1.0000 0.76950  0.78270  0.55170  Biso   1.000  H
  C97      1.0000 0.87060  0.97730  0.54900  Biso   1.000  C
  C98      1.0000 0.37060  0.47730  0.95100  Biso   1.000  C
  C99      1.0000 0.62940  0.97730  0.04900  Biso   1.000  C
  C100     1.0000 0.12940  0.47730  0.45100  Biso   1.000  C
  H81      1.0000 0.83810  0.98860  0.58970  Biso   1.000  H
  H82      1.0000 0.33810  0.48860  0.91030  Biso   1.000  H
  H83      1.0000 0.66190  0.98860  0.08970  Biso   1.000  H
  H84      1.0000 0.16190  0.48860  0.41030  Biso   1.000  H
  C101     1.0000 0.93630  0.91970  0.55560  Biso   1.000  C
  C102     1.0000 0.43630  0.41970  0.94440  Biso   1.000  C
  C103     1.0000 0.56370  0.91970  0.05560  Biso   1.000  C
  C104     1.0000 0.06370  0.41970  0.44440  Biso   1.000  C
  H85      1.0000 0.94840  0.89510  0.60010  Biso   1.000  H
  H86      1.0000 0.44840  0.39510  0.89990  Biso   1.000  H
  H87      1.0000 0.55160  0.89510  0.10010  Biso   1.000  H
  H88      1.0000 0.05160  0.39510  0.39990  Biso   1.000  H
  C105     1.0000 0.98440  0.89900  0.49400  Biso   1.000  C
  C106     1.0000 0.48440  0.39900  0.00600  Biso   1.000  C
  C107     1.0000 0.51560  0.89900  0.99400  Biso   1.000  C
  C108     1.0000 0.01560  0.39900  0.50600  Biso   1.000  C
  C109     1.0000 0.96490  0.94100  0.43110  Biso   1.000  C
  C110     1.0000 0.46490  0.44100  0.06890  Biso   1.000  C
  C111     1.0000 0.53510  0.94100  0.93110  Biso   1.000  C
  C112     1.0000 0.03510  0.44100  0.56890  Biso   1.000  C
  H89      1.0000 0.99620  0.93100  0.38940  Biso   1.000  H
  H90      1.0000 0.49620  0.43100  0.11060  Biso   1.000  H
  H91      1.0000 0.50380  0.93100  0.88940  Biso   1.000  H
  H92      1.0000 0.00380  0.43100  0.61060  Biso   1.000  H
  C113     1.0000 0.89860  0.99810  0.42970  Biso   1.000  C
  C114     1.0000 0.39860  0.49810  0.07030  Biso   1.000  C
  C115     1.0000 0.60140  0.99810  0.92970  Biso   1.000  C
  C116     1.0000 0.10140  0.49810  0.57030  Biso   1.000  C
  H93      1.0000 0.88590  0.02460  0.38620  Biso   1.000  H
  H94      1.0000 0.38590  0.52460  0.11380  Biso   1.000  H
  H95      1.0000 0.61410  0.02460  0.88620  Biso   1.000  H
  H96      1.0000 0.11410  0.52460  0.61380  Biso   1.000  H
  C117     1.0000 0.05010  0.83170  0.49910  Biso   1.000  C
  C118     1.0000 0.55010  0.33170  0.00090  Biso   1.000  C
  C119     1.0000 0.44990  0.83170  0.99910  Biso   1.000  C
  C120     1.0000 0.94990  0.33170  0.50090  Biso   1.000  C
  C121     1.0000 0.11230  0.82160  0.44760  Biso   1.000  C
  C122     1.0000 0.61230  0.32160  0.05240  Biso   1.000  C
  C123     1.0000 0.38770  0.82160  0.94760  Biso   1.000  C
  C124     1.0000 0.88770  0.32160  0.55240  Biso   1.000  C
  H97      1.0000 0.11520  0.85880  0.40880  Biso   1.000  H
  H98      1.0000 0.61520  0.35880  0.09120  Biso   1.000  H
  H99      1.0000 0.38480  0.85880  0.90880  Biso   1.000  H
  H100     1.0000 0.88480  0.35880  0.59120  Biso   1.000  H
  C125     1.0000 0.10930  0.71130  0.55830  Biso   1.000  C
  C126     1.0000 0.60930  0.21130  0.94170  Biso   1.000  C
  C127     1.0000 0.39070  0.71130  0.05830  Biso   1.000  C
  C128     1.0000 0.89070  0.21130  0.44170  Biso   1.000  C
  H101     1.0000 0.10750  0.67310  0.59640  Biso   1.000  H
  H102     1.0000 0.60750  0.17310  0.90360  Biso   1.000  H
  H103     1.0000 0.39250  0.67310  0.09640  Biso   1.000  H
  H104     1.0000 0.89250  0.17310  0.40360  Biso   1.000  H
  C129     1.0000 0.17030  0.75700  0.45280  Biso   1.000  C
  C130     1.0000 0.67030  0.25700  0.04720  Biso   1.000  C
  C131     1.0000 0.32970  0.75700  0.95280  Biso   1.000  C
  C132     1.0000 0.82970  0.25700  0.54720  Biso   1.000  C
  H105     1.0000 0.21160  0.75150  0.41730  Biso   1.000  H
  H106     1.0000 0.71160  0.25150  0.08270  Biso   1.000  H
  H107     1.0000 0.28840  0.75150  0.91730  Biso   1.000  H
  H108     1.0000 0.78840  0.25150  0.58270  Biso   1.000  H
  C133     1.0000 0.05070  0.77510  0.55670  Biso   1.000  C
  C134     1.0000 0.55070  0.27510  0.94330  Biso   1.000  C
  C135     1.0000 0.44930  0.77510  0.05670  Biso   1.000  C
  C136     1.0000 0.94930  0.27510  0.44330  Biso   1.000  C
  H109     1.0000 0.01160  0.78050  0.59390  Biso   1.000  H
  H110     1.0000 0.51160  0.28050  0.90610  Biso   1.000  H
  H111     1.0000 0.48840  0.78050  0.09390  Biso   1.000  H
  H112     1.0000 0.98840  0.28050  0.40610  Biso   1.000  H
  C137     1.0000 0.63590  0.96980  0.55690  Biso   1.000  C
  C138     1.0000 0.13590  0.46980  0.94310  Biso   1.000  C
  C139     1.0000 0.86410  0.96980  0.05690  Biso   1.000  C
  C140     1.0000 0.36410  0.46980  0.44310  Biso   1.000  C
  H113     1.0000 0.65310  0.99500  0.59990  Biso   1.000  H
  H114     1.0000 0.15310  0.49500  0.90010  Biso   1.000  H
  H115     1.0000 0.84690  0.99500  0.09990  Biso   1.000  H
  H116     1.0000 0.34690  0.49500  0.40010  Biso   1.000  H
  C141     1.0000 0.57680  0.90580  0.55980  Biso   1.000  C
  C142     1.0000 0.07680  0.40580  0.94020  Biso   1.000  C
  C143     1.0000 0.92320  0.90580  0.05980  Biso   1.000  C
  C144     1.0000 0.42320  0.40580  0.44020  Biso   1.000  C
  H117     1.0000 0.55590  0.88810  0.60420  Biso   1.000  H
  H118     1.0000 0.05590  0.38810  0.89580  Biso   1.000  H
  H119     1.0000 0.94410  0.88810  0.10420  Biso   1.000  H
  H120     1.0000 0.44410  0.38810  0.39580  Biso   1.000  H
  C145     1.0000 0.54850  0.86780  0.49670  Biso   1.000  C
  C146     1.0000 0.04850  0.36780  0.00330  Biso   1.000  C
  C147     1.0000 0.95150  0.86780  0.99670  Biso   1.000  C
  C148     1.0000 0.45150  0.36780  0.50330  Biso   1.000  C
  C149     1.0000 0.58570  0.89400  0.43270  Biso   1.000  C
  C150     1.0000 0.08570  0.39400  0.06730  Biso   1.000  C
  C151     1.0000 0.91430  0.89400  0.93270  Biso   1.000  C
  C152     1.0000 0.41430  0.39400  0.56730  Biso   1.000  C
  H121     1.0000 0.57080  0.86880  0.38920  Biso   1.000  H
  H122     1.0000 0.07080  0.36880  0.11080  Biso   1.000  H
  H123     1.0000 0.92920  0.86880  0.88920  Biso   1.000  H
  H124     1.0000 0.42920  0.36880  0.61080  Biso   1.000  H
  C153     1.0000 0.64530  0.95790  0.43400  Biso   1.000  C
  C154     1.0000 0.14530  0.45790  0.06600  Biso   1.000  C
  C155     1.0000 0.85470  0.95790  0.93400  Biso   1.000  C
  C156     1.0000 0.35470  0.45790  0.56600  Biso   1.000  C
  H125     1.0000 0.66960  0.97380  0.39030  Biso   1.000  H
  H126     1.0000 0.16960  0.47380  0.10970  Biso   1.000  H
  H127     1.0000 0.83040  0.97380  0.89030  Biso   1.000  H
  H128     1.0000 0.33040  0.47380  0.60970  Biso   1.000  H
  C157     1.0000 0.48050  0.80290  0.49850  Biso   1.000  C
  C158     1.0000 0.98050  0.30290  0.00150  Biso   1.000  C
  C159     1.0000 0.01950  0.80290  0.99850  Biso   1.000  C
  C160     1.0000 0.51950  0.30290  0.50150  Biso   1.000  C
  C161     1.0000 0.42280  0.80080  0.55460  Biso   1.000  C
  C162     1.0000 0.92280  0.30080  0.94540  Biso   1.000  C
  C163     1.0000 0.07720  0.80080  0.05460  Biso   1.000  C
  C164     1.0000 0.57720  0.30080  0.44540  Biso   1.000  C
  H129     1.0000 0.42700  0.83980  0.59190  Biso   1.000  H
  H130     1.0000 0.92700  0.33980  0.90810  Biso   1.000  H
  H131     1.0000 0.07300  0.83980  0.09190  Biso   1.000  H
  H132     1.0000 0.57300  0.33980  0.40810  Biso   1.000  H
  C165     1.0000 0.35910  0.74170  0.55590  Biso   1.000  C
  C166     1.0000 0.85910  0.24170  0.94410  Biso   1.000  C
  C167     1.0000 0.14090  0.74170  0.05590  Biso   1.000  C
  C168     1.0000 0.64090  0.24170  0.44410  Biso   1.000  C
  H133     1.0000 0.32040  0.74260  0.59370  Biso   1.000  H
  H134     1.0000 0.82040  0.24260  0.90630  Biso   1.000  H
  H135     1.0000 0.17960  0.74260  0.09370  Biso   1.000  H
  H136     1.0000 0.67960  0.24260  0.40630  Biso   1.000  H
  C169     1.0000 0.40740  0.68370  0.45060  Biso   1.000  C
  C170     1.0000 0.90740  0.18370  0.04940  Biso   1.000  C
  C171     1.0000 0.09260  0.68370  0.95060  Biso   1.000  C
  C172     1.0000 0.59260  0.18370  0.54940  Biso   1.000  C
  H137     1.0000 0.40340  0.64280  0.41480  Biso   1.000  H
  H138     1.0000 0.90340  0.14280  0.08520  Biso   1.000  H
  H139     1.0000 0.09660  0.64280  0.91480  Biso   1.000  H
  H140     1.0000 0.59660  0.14280  0.58520  Biso   1.000  H
  C173     1.0000 0.47170  0.74310  0.44570  Biso   1.000  C
  C174     1.0000 0.97170  0.24310  0.05430  Biso   1.000  C
  C175     1.0000 0.02830  0.74310  0.94570  Biso   1.000  C
  C176     1.0000 0.52830  0.24310  0.55430  Biso   1.000  C
  H141     1.0000 0.50860  0.74230  0.40650  Biso   1.000  H
  H142     1.0000 0.00860  0.24230  0.09350  Biso   1.000  H
  H143     1.0000 0.99140  0.74230  0.90650  Biso   1.000  H
  H144     1.0000 0.49140  0.24230  0.59350  Biso   1.000  H
  Cu1      1.0000 0.54696  0.11334  0.23956  Biso   1.000  Cu
  Cu2      1.0000 0.04696  0.61334  0.26044  Biso   1.000  Cu
  Cu3      1.0000 0.95304  0.11334  0.73956  Biso   1.000  Cu
  Cu4      1.0000 0.45304  0.61334  0.76044  Biso   1.000  Cu
  Cu5      1.0000 0.75001  0.09919  0.49020  Biso   1.000  Cu
  Cu6      1.0000 0.25001  0.59919  0.00980  Biso   1.000  Cu
  Cu7      1.0000 0.74999  0.09919  0.99020  Biso   1.000  Cu
  Cu8      1.0000 0.24999  0.59919  0.50980  Biso   1.000  Cu
  N1       1.0000 0.45990  0.09590  0.15960  Biso   1.000  N
  N2       1.0000 0.95990  0.59590  0.34040  Biso   1.000  N
  N3       1.0000 0.04010  0.09590  0.65960  Biso   1.000  N
  N4       1.0000 0.54010  0.59590  0.84040  Biso   1.000  N
  N5       1.0000 0.21340  0.95610  0.86270  Biso   1.000  N
  N6       1.0000 0.71340  0.45610  0.63730  Biso   1.000  N
  N7       1.0000 0.28660  0.95610  0.36270  Biso   1.000  N
  N8       1.0000 0.78660  0.45610  0.13730  Biso   1.000  N
  N9       1.0000 0.45880  0.12810  0.31650  Biso   1.000  N
  N10      1.0000 0.95880  0.62810  0.18350  Biso   1.000  N
  N11      1.0000 0.04120  0.12810  0.81650  Biso   1.000  N
  N12      1.0000 0.54120  0.62810  0.68350  Biso   1.000  N
  N13      1.0000 0.21960  0.25920  0.62050  Biso   1.000  N
  N14      1.0000 0.71960  0.75920  0.87950  Biso   1.000  N
  N15      1.0000 0.28040  0.25920  0.12050  Biso   1.000  N
  N16      1.0000 0.78040  0.75920  0.37950  Biso   1.000  N
  N17      1.0000 0.85180  0.01680  0.48830  Biso   1.000  N
  N18      1.0000 0.35180  0.51680  0.01170  Biso   1.000  N
  N19      1.0000 0.64820  0.01680  0.98830  Biso   1.000  N
  N20      1.0000 0.14820  0.51680  0.51170  Biso   1.000  N
  N21      1.0000 0.35120  0.68280  0.50430  Biso   1.000  N
  N22      1.0000 0.85120  0.18280  0.99570  Biso   1.000  N
  N23      1.0000 0.14880  0.68280  0.00430  Biso   1.000  N
  N24      1.0000 0.64880  0.18280  0.49570  Biso   1.000  N
  N25      1.0000 0.67000  0.99760  0.49290  Biso   1.000  N
  N26      1.0000 0.17000  0.49760  0.00710  Biso   1.000  N
  N27      1.0000 0.83000  0.99760  0.99290  Biso   1.000  N
  N28      1.0000 0.33000  0.49760  0.50710  Biso   1.000  N
  N29      1.0000 0.16850  0.70180  0.50790  Biso   1.000  N
  N30      1.0000 0.66850  0.20180  0.99210  Biso   1.000  N
  N31      1.0000 0.33150  0.70180  0.00790  Biso   1.000  N
  N32      1.0000 0.83150  0.20180  0.49210  Biso   1.000  N
  N33      1.0000 0.54900  0.33190  0.24250  Biso   1.000  N
  N34      1.0000 0.04900  0.83190  0.25750  Biso   1.000  N
  N35      1.0000 0.95100  0.33190  0.74250  Biso   1.000  N
  N36      1.0000 0.45100  0.83190  0.75750  Biso   1.000  N
  N37      1.0000 0.42940  0.20470  0.78190  Biso   1.000  N
  N38      1.0000 0.92940  0.70470  0.71810  Biso   1.000  N
  N39      1.0000 0.07060  0.20470  0.28190  Biso   1.000  N
  N40      1.0000 0.57060  0.70470  0.21810  Biso   1.000  N
  O1       1.0000 0.75820  0.10520  0.11935  Biso   1.000  O
  O2       1.0000 0.25820  0.60520  0.38065  Biso   1.000  O
  O3       1.0000 0.74180  0.10520  0.61935  Biso   1.000  O
  O4       1.0000 0.24180  0.60520  0.88065  Biso   1.000  O
  O5       1.0000 0.63190  0.11290  0.16630  Biso   1.000  O
  O6       1.0000 0.13190  0.61290  0.33370  Biso   1.000  O
  O7       1.0000 0.86810  0.11290  0.66630  Biso   1.000  O
  O8       1.0000 0.36810  0.61290  0.83370  Biso   1.000  O
  O9       1.0000 0.75620  0.10550  0.36448  Biso   1.000  O
  O10      1.0000 0.25620  0.60550  0.13552  Biso   1.000  O
  O11      1.0000 0.74380  0.10550  0.86448  Biso   1.000  O
  O12      1.0000 0.24380  0.60550  0.63552  Biso   1.000  O
  O13      1.0000 0.63070  0.11730  0.31602  Biso   1.000  O
  O14      1.0000 0.13070  0.61730  0.18398  Biso   1.000  O
  O15      1.0000 0.86930  0.11730  0.81602  Biso   1.000  O
  O16      1.0000 0.36930  0.61730  0.68398  Biso   1.000  O
  O17      1.0000 0.52250  0.27650  0.20770  Biso   1.000  O
  O18      1.0000 0.02250  0.77650  0.29230  Biso   1.000  O
  O19      1.0000 0.97750  0.27650  0.70770  Biso   1.000  O
  O20      1.0000 0.47750  0.77650  0.79230  Biso   1.000  O
  O21      1.0000 0.62570  0.34440  0.26040  Biso   1.000  O
  O22      1.0000 0.12570  0.84440  0.23960  Biso   1.000  O
  O23      1.0000 0.87430  0.34440  0.76040  Biso   1.000  O
  O24      1.0000 0.37430  0.84440  0.73960  Biso   1.000  O
  O25      1.0000 0.50170  0.38620  0.26900  Biso   1.000  O
  O26      1.0000 0.00170  0.88620  0.23100  Biso   1.000  O
  O27      1.0000 0.99830  0.38620  0.76900  Biso   1.000  O
  O28      1.0000 0.49830  0.88620  0.73100  Biso   1.000  O
  O29      1.0000 0.45430  0.23140  0.72920  Biso   1.000  O
  O30      1.0000 0.95430  0.73140  0.77080  Biso   1.000  O
  O31      1.0000 0.04570  0.23140  0.22920  Biso   1.000  O
  O32      1.0000 0.54570  0.73140  0.27080  Biso   1.000  O
  O33      1.0000 0.46690  0.14550  0.80770  Biso   1.000  O
  O34      1.0000 0.96690  0.64550  0.69230  Biso   1.000  O
  O35      1.0000 0.03310  0.14550  0.30770  Biso   1.000  O
  O36      1.0000 0.53310  0.64550  0.19230  Biso   1.000  O
  O37      1.0000 0.38020  0.23540  0.83300  Biso   1.000  O
  O38      1.0000 0.88020  0.73540  0.66700  Biso   1.000  O
  O39      1.0000 0.11980  0.23540  0.33300  Biso   1.000  O
  O40      1.0000 0.61980  0.73540  0.16700  Biso   1.000  O
  O41      1.0000 0.55560  0.96400  0.25650  Biso   1.000  O
  O42      1.0000 0.05560  0.46400  0.24350  Biso   1.000  O
  O43      1.0000 0.94440  0.96400  0.75650  Biso   1.000  O
  O44      1.0000 0.44440  0.46400  0.74350  Biso   1.000  O
  O45      1.0000 0.69510  0.88290  0.19510  Biso   1.000  O
  O46      1.0000 0.19510  0.38290  0.30490  Biso   1.000  O
  O47      1.0000 0.80490  0.88290  0.69510  Biso   1.000  O
  O48      1.0000 0.30490  0.38290  0.80490  Biso   1.000  O
  O49      1.0000 0.16360  0.37660  0.72650  Biso   1.000  O
  O50      1.0000 0.66360  0.87660  0.77350  Biso   1.000  O
  O51      1.0000 0.33640  0.37660  0.22650  Biso   1.000  O
  O52      1.0000 0.83640  0.87660  0.27350  Biso   1.000  O
  O53      1.0000 0.41540  0.86910  0.28140  Biso   1.000  O
  O54      1.0000 0.91540  0.36910  0.21860  Biso   1.000  O
  O55      1.0000 0.08460  0.86910  0.78140  Biso   1.000  O
  O56      1.0000 0.58460  0.36910  0.71860  Biso   1.000  O
  O57      1.0000 0.44000  0.03460  0.65810  Biso   1.000  O
  O58      1.0000 0.94000  0.53460  0.84190  Biso   1.000  O
  O59      1.0000 0.06000  0.03460  0.15810  Biso   1.000  O
  O60      1.0000 0.56000  0.53460  0.34190  Biso   1.000  O
  C177     1.0000 0.75680  0.12790  0.24190  Biso   1.000  C
  C178     1.0000 0.25680  0.62790  0.25810  Biso   1.000  C
  C179     1.0000 0.74320  0.12790  0.74190  Biso   1.000  C
  C180     1.0000 0.24320  0.62790  0.75810  Biso   1.000  C
  C181     1.0000 0.79980  0.21250  0.24140  Biso   1.000  C
  C182     1.0000 0.29980  0.71250  0.25860  Biso   1.000  C
  C183     1.0000 0.70020  0.21250  0.74140  Biso   1.000  C
  C184     1.0000 0.20020  0.71250  0.75860  Biso   1.000  C
  H145     1.0000 0.80210  0.08580  0.24270  Biso   1.000  H
  H146     1.0000 0.30210  0.58580  0.25730  Biso   1.000  H
  H147     1.0000 0.69790  0.08580  0.74270  Biso   1.000  H
  H148     1.0000 0.19790  0.58580  0.75730  Biso   1.000  H
  H149     1.0000 0.82230  0.22340  0.19410  Biso   1.000  H
  H150     1.0000 0.32230  0.72340  0.30590  Biso   1.000  H
  H151     1.0000 0.67770  0.22340  0.69410  Biso   1.000  H
  H152     1.0000 0.17770  0.72340  0.80590  Biso   1.000  H
  H153     1.0000 0.84500  0.21260  0.27610  Biso   1.000  H
  H154     1.0000 0.34500  0.71260  0.22390  Biso   1.000  H
  H155     1.0000 0.65500  0.21260  0.77610  Biso   1.000  H
  H156     1.0000 0.15500  0.71260  0.72390  Biso   1.000  H
  H157     1.0000 0.75960  0.25540  0.25370  Biso   1.000  H
  H158     1.0000 0.25960  0.75540  0.24630  Biso   1.000  H
  H159     1.0000 0.74040  0.25540  0.75370  Biso   1.000  H
  H160     1.0000 0.24040  0.75540  0.74630  Biso   1.000  H
