data_image0
_cell_length_a       32.653
_cell_length_b       13.8474
_cell_length_c       18.5343
_cell_angle_alpha    90
_cell_angle_beta     101.242
_cell_angle_gamma    90

_symmetry_space_group_name_H-M    "P 1"
_symmetry_int_tables_number       1

loop_
  _symmetry_equiv_pos_as_xyz
  'x, y, z'

loop_
  _atom_site_label
  _atom_site_occupancy
  _atom_site_fract_x
  _atom_site_fract_y
  _atom_site_fract_z
  _atom_site_thermal_displace_type
  _atom_site_B_iso_or_equiv
  _atom_site_type_symbol
  Cu1      1.0000 0.50000  0.00000  0.50000  Biso   1.000  Cu
  Cu2      1.0000 0.00000  0.50000  0.00000  Biso   1.000  Cu
  O1       1.0000 0.49015  0.86530  0.50360  Biso   1.000  O
  O2       1.0000 0.00985  0.36530  0.99640  Biso   1.000  O
  O3       1.0000 0.50985  0.13470  0.49640  Biso   1.000  O
  O4       1.0000 0.99015  0.63470  0.00360  Biso   1.000  O
  O5       1.0000 0.45733  0.02830  0.55260  Biso   1.000  O
  O6       1.0000 0.04267  0.52830  0.94740  Biso   1.000  O
  O7       1.0000 0.54267  0.97170  0.44740  Biso   1.000  O
  O8       1.0000 0.95733  0.47170  0.05260  Biso   1.000  O
  C1       1.0000 0.40099  0.01860  0.61260  Biso   1.000  C
  C2       1.0000 0.09901  0.51860  0.88740  Biso   1.000  C
  C3       1.0000 0.59901  0.98140  0.38740  Biso   1.000  C
  C4       1.0000 0.90099  0.48140  0.11260  Biso   1.000  C
  H1       1.0000 0.40140  0.08740  0.60310  Biso   1.000  H
  H2       1.0000 0.09860  0.58740  0.89690  Biso   1.000  H
  H3       1.0000 0.59860  0.91260  0.39690  Biso   1.000  H
  H4       1.0000 0.90140  0.41260  0.10310  Biso   1.000  H
  H5       1.0000 0.40670  0.00740  0.66530  Biso   1.000  H
  H6       1.0000 0.09330  0.50740  0.83470  Biso   1.000  H
  H7       1.0000 0.59330  0.99260  0.33470  Biso   1.000  H
  H8       1.0000 0.90670  0.49260  0.16530  Biso   1.000  H
  H9       1.0000 0.37370  0.99270  0.59120  Biso   1.000  H
  H10      1.0000 0.12630  0.49270  0.90880  Biso   1.000  H
  H11      1.0000 0.62630  0.00730  0.40880  Biso   1.000  H
  H12      1.0000 0.87370  0.50730  0.09120  Biso   1.000  H
  C5       1.0000 0.43378  0.96930  0.57900  Biso   1.000  C
  C6       1.0000 0.06622  0.46930  0.92100  Biso   1.000  C
  C7       1.0000 0.56622  0.03070  0.42100  Biso   1.000  C
  C8       1.0000 0.93378  0.53070  0.07900  Biso   1.000  C
  C9       1.0000 0.43654  0.86750  0.57400  Biso   1.000  C
  C10      1.0000 0.06346  0.36750  0.92600  Biso   1.000  C
  C11      1.0000 0.56346  0.13250  0.42600  Biso   1.000  C
  C12      1.0000 0.93654  0.63250  0.07400  Biso   1.000  C
  C13      1.0000 0.46455  0.82070  0.53680  Biso   1.000  C
  C14      1.0000 0.03545  0.32070  0.96320  Biso   1.000  C
  C15      1.0000 0.53545  0.17930  0.46320  Biso   1.000  C
  C16      1.0000 0.96455  0.67930  0.03680  Biso   1.000  C
  C17      1.0000 0.46710  0.71330  0.53300  Biso   1.000  C
  C18      1.0000 0.03290  0.21330  0.96700  Biso   1.000  C
  C19      1.0000 0.53290  0.28670  0.46700  Biso   1.000  C
  C20      1.0000 0.96710  0.78670  0.03300  Biso   1.000  C
  H13      1.0000 0.45050  0.69090  0.48690  Biso   1.000  H
  H14      1.0000 0.04950  0.19090  0.01310  Biso   1.000  H
  H15      1.0000 0.54950  0.30910  0.51310  Biso   1.000  H
  H16      1.0000 0.95050  0.80910  0.98690  Biso   1.000  H
  H17      1.0000 0.45650  0.68510  0.57370  Biso   1.000  H
  H18      1.0000 0.04350  0.18510  0.92630  Biso   1.000  H
  H19      1.0000 0.54350  0.31490  0.42630  Biso   1.000  H
  H20      1.0000 0.95650  0.81490  0.07370  Biso   1.000  H
  H21      1.0000 0.49590  0.69400  0.53610  Biso   1.000  H
  H22      1.0000 0.00410  0.19400  0.96390  Biso   1.000  H
  H23      1.0000 0.50410  0.30600  0.46390  Biso   1.000  H
  H24      1.0000 0.99590  0.80600  0.03610  Biso   1.000  H
  C21      1.0000 0.40590  0.80730  0.60560  Biso   1.000  C
  C22      1.0000 0.09410  0.30730  0.89440  Biso   1.000  C
  C23      1.0000 0.59410  0.19270  0.39440  Biso   1.000  C
  C24      1.0000 0.90590  0.69270  0.10560  Biso   1.000  C
  C25      1.0000 0.37407  0.75790  0.55980  Biso   1.000  C
  C26      1.0000 0.12593  0.25790  0.94020  Biso   1.000  C
  C27      1.0000 0.62593  0.24210  0.44020  Biso   1.000  C
  C28      1.0000 0.87407  0.74210  0.05980  Biso   1.000  C
  H25      1.0000 0.37310  0.75690  0.50880  Biso   1.000  H
  H26      1.0000 0.12690  0.25690  0.99120  Biso   1.000  H
  H27      1.0000 0.62690  0.24310  0.49120  Biso   1.000  H
  H28      1.0000 0.87310  0.74310  0.00880  Biso   1.000  H
  C29      1.0000 0.40701  0.80210  0.68010  Biso   1.000  C
  C30      1.0000 0.09299  0.30210  0.81990  Biso   1.000  C
  C31      1.0000 0.59299  0.19790  0.31990  Biso   1.000  C
  C32      1.0000 0.90701  0.69790  0.18010  Biso   1.000  C
  H29      1.0000 0.42890  0.83150  0.71340  Biso   1.000  H
  H30      1.0000 0.07110  0.33150  0.78660  Biso   1.000  H
  H31      1.0000 0.57110  0.16850  0.28660  Biso   1.000  H
  H32      1.0000 0.92890  0.66850  0.21340  Biso   1.000  H
  C33      1.0000 0.37552  0.75310  0.70570  Biso   1.000  C
  C34      1.0000 0.12448  0.25310  0.79430  Biso   1.000  C
  C35      1.0000 0.62448  0.24690  0.29430  Biso   1.000  C
  C36      1.0000 0.87552  0.74690  0.20570  Biso   1.000  C
  H33      1.0000 0.37660  0.74970  0.75670  Biso   1.000  H
  H34      1.0000 0.12340  0.24970  0.74330  Biso   1.000  H
  H35      1.0000 0.62340  0.25030  0.24330  Biso   1.000  H
  H36      1.0000 0.87660  0.75030  0.25670  Biso   1.000  H
  C37      1.0000 0.34395  0.71030  0.58830  Biso   1.000  C
  C38      1.0000 0.15605  0.21030  0.91170  Biso   1.000  C
  C39      1.0000 0.65605  0.28970  0.41170  Biso   1.000  C
  C40      1.0000 0.84395  0.78970  0.08830  Biso   1.000  C
  H37      1.0000 0.32290  0.67670  0.55610  Biso   1.000  H
  H38      1.0000 0.17710  0.17670  0.94390  Biso   1.000  H
  H39      1.0000 0.67710  0.32330  0.44390  Biso   1.000  H
  H40      1.0000 0.82290  0.82330  0.05610  Biso   1.000  H
  N1       1.0000 0.34342  0.71020  0.65990  Biso   1.000  N
  N2       1.0000 0.15658  0.21020  0.84010  Biso   1.000  N
  N3       1.0000 0.65658  0.28980  0.34010  Biso   1.000  N
  N4       1.0000 0.84342  0.78980  0.15990  Biso   1.000  N
  Cu3      1.0000 0.29191  0.66315  0.69098  Biso   1.000  Cu
  Cu4      1.0000 0.20809  0.16315  0.80902  Biso   1.000  Cu
  Cu5      1.0000 0.70809  0.33685  0.30902  Biso   1.000  Cu
  Cu6      1.0000 0.79191  0.83685  0.19098  Biso   1.000  Cu
  O9       1.0000 0.30609  0.52810  0.67660  Biso   1.000  O
  O10      1.0000 0.19391  0.02810  0.82340  Biso   1.000  O
  O11      1.0000 0.69391  0.47190  0.32340  Biso   1.000  O
  O12      1.0000 0.80609  0.97190  0.17660  Biso   1.000  O
  C41      1.0000 0.28175  0.46550  0.69600  Biso   1.000  C
  C42      1.0000 0.21825  0.96550  0.80400  Biso   1.000  C
  C43      1.0000 0.71825  0.53450  0.30400  Biso   1.000  C
  C44      1.0000 0.78175  0.03450  0.19600  Biso   1.000  C
  O13      1.0000 0.28421  0.37740  0.68870  Biso   1.000  O
  O14      1.0000 0.21579  0.87740  0.81130  Biso   1.000  O
  O15      1.0000 0.71579  0.62260  0.31130  Biso   1.000  O
  O16      1.0000 0.78421  0.12260  0.18870  Biso   1.000  O
  C45      1.0000 0.24802  0.50640  0.73230  Biso   1.000  C
  C46      1.0000 0.25198  0.00640  0.76770  Biso   1.000  C
  C47      1.0000 0.75198  0.49360  0.26770  Biso   1.000  C
  C48      1.0000 0.74802  0.99360  0.23230  Biso   1.000  C
  N5       1.0000 0.24954  0.60230  0.74170  Biso   1.000  N
  N6       1.0000 0.25046  0.10230  0.75830  Biso   1.000  N
  N7       1.0000 0.75046  0.39770  0.25830  Biso   1.000  N
  N8       1.0000 0.74954  0.89770  0.24170  Biso   1.000  N
  C49      1.0000 0.22223  0.64550  0.77540  Biso   1.000  C
  C50      1.0000 0.27777  0.14550  0.72460  Biso   1.000  C
  C51      1.0000 0.77777  0.35450  0.22460  Biso   1.000  C
  C52      1.0000 0.72223  0.85450  0.27540  Biso   1.000  C
  H41      1.0000 0.22300  0.71290  0.78180  Biso   1.000  H
  H42      1.0000 0.27700  0.21290  0.71820  Biso   1.000  H
  H43      1.0000 0.77700  0.28710  0.21820  Biso   1.000  H
  H44      1.0000 0.72300  0.78710  0.28180  Biso   1.000  H
  C53      1.0000 0.19247  0.59050  0.80110  Biso   1.000  C
  C54      1.0000 0.30753  0.09050  0.69890  Biso   1.000  C
  C55      1.0000 0.80753  0.40950  0.19890  Biso   1.000  C
  C56      1.0000 0.69247  0.90950  0.30110  Biso   1.000  C
  H45      1.0000 0.17390  0.62180  0.82630  Biso   1.000  H
  H46      1.0000 0.32610  0.12180  0.67370  Biso   1.000  H
  H47      1.0000 0.82610  0.37820  0.17370  Biso   1.000  H
  H48      1.0000 0.67390  0.87820  0.32630  Biso   1.000  H
  N9       1.0000 0.18920  0.49590  0.79150  Biso   1.000  N
  N10      1.0000 0.31080  0.99590  0.70850  Biso   1.000  N
  N11      1.0000 0.81080  0.50410  0.20850  Biso   1.000  N
  N12      1.0000 0.68920  0.00410  0.29150  Biso   1.000  N
  C57      1.0000 0.21688  0.45320  0.75680  Biso   1.000  C
  C58      1.0000 0.28312  0.95320  0.74320  Biso   1.000  C
  C59      1.0000 0.78312  0.54680  0.24320  Biso   1.000  C
  C60      1.0000 0.71688  0.04680  0.25680  Biso   1.000  C
  C61      1.0000 0.20993  0.34640  0.74570  Biso   1.000  C
  C62      1.0000 0.29007  0.84640  0.75430  Biso   1.000  C
  C63      1.0000 0.79007  0.65360  0.25430  Biso   1.000  C
  C64      1.0000 0.70993  0.15360  0.24570  Biso   1.000  C
  O17      1.0000 0.22785  0.29470  0.79880  Biso   1.000  O
  O18      1.0000 0.27215  0.79470  0.70120  Biso   1.000  O
  O19      1.0000 0.77215  0.70530  0.20120  Biso   1.000  O
  O20      1.0000 0.72785  0.20530  0.29880  Biso   1.000  O
  O21      1.0000 0.18545  0.31810  0.69070  Biso   1.000  O
  O22      1.0000 0.31455  0.81810  0.80930  Biso   1.000  O
  O23      1.0000 0.81455  0.68190  0.30930  Biso   1.000  O
  O24      1.0000 0.68545  0.18190  0.19070  Biso   1.000  O
  O25      1.0000 0.24941  0.68180  0.57881  Biso   1.000  O
  O26      1.0000 0.25059  0.18180  0.92119  Biso   1.000  O
  O27      1.0000 0.75059  0.31820  0.42119  Biso   1.000  O
  O28      1.0000 0.74941  0.81820  0.07881  Biso   1.000  O
  O29      1.0000 0.20538  0.69520  0.47222  Biso   1.000  O
  O30      1.0000 0.29462  0.19520  0.02778  Biso   1.000  O
  O31      1.0000 0.79462  0.30480  0.52778  Biso   1.000  O
  O32      1.0000 0.70538  0.80480  0.97222  Biso   1.000  O
  C65      1.0000 0.22852  0.64650  0.52240  Biso   1.000  C
  C66      1.0000 0.27148  0.14650  0.97760  Biso   1.000  C
  C67      1.0000 0.77148  0.35350  0.47760  Biso   1.000  C
  C68      1.0000 0.72852  0.85350  0.02240  Biso   1.000  C
  C69      1.0000 0.22689  0.53850  0.51500  Biso   1.000  C
  C70      1.0000 0.27311  0.03850  0.98500  Biso   1.000  C
  C71      1.0000 0.77311  0.46150  0.48500  Biso   1.000  C
  C72      1.0000 0.72689  0.96150  0.01500  Biso   1.000  C
  C73      1.0000 0.25543  0.48290  0.48600  Biso   1.000  C
  C74      1.0000 0.24457  0.98290  0.01400  Biso   1.000  C
  C75      1.0000 0.74457  0.51710  0.51400  Biso   1.000  C
  C76      1.0000 0.75543  0.01710  0.98600  Biso   1.000  C
  N13      1.0000 0.19599  0.49570  0.54270  Biso   1.000  N
  N14      1.0000 0.30401  0.99570  0.95730  Biso   1.000  N
  N15      1.0000 0.80401  0.50430  0.45730  Biso   1.000  N
  N16      1.0000 0.69599  0.00430  0.04270  Biso   1.000  N
  C77      1.0000 0.19620  0.40060  0.54540  Biso   1.000  C
  C78      1.0000 0.30380  0.90060  0.95460  Biso   1.000  C
  C79      1.0000 0.80380  0.59940  0.45460  Biso   1.000  C
  C80      1.0000 0.69620  0.09940  0.04540  Biso   1.000  C
  H49      1.0000 0.17600  0.36970  0.56710  Biso   1.000  H
  H50      1.0000 0.32400  0.86970  0.93290  Biso   1.000  H
  H51      1.0000 0.82400  0.63030  0.43290  Biso   1.000  H
  H52      1.0000 0.67600  0.13030  0.06710  Biso   1.000  H
  C81      1.0000 0.22458  0.34360  0.51810  Biso   1.000  C
  C82      1.0000 0.27542  0.84360  0.98190  Biso   1.000  C
  C83      1.0000 0.77542  0.65640  0.48190  Biso   1.000  C
  C84      1.0000 0.72458  0.15640  0.01810  Biso   1.000  C
  H53      1.0000 0.22320  0.27590  0.52020  Biso   1.000  H
  H54      1.0000 0.27680  0.77590  0.97980  Biso   1.000  H
  H55      1.0000 0.77680  0.72410  0.47980  Biso   1.000  H
  H56      1.0000 0.72320  0.22410  0.02020  Biso   1.000  H
  N17      1.0000 0.25388  0.38700  0.48880  Biso   1.000  N
  N18      1.0000 0.24612  0.88700  0.01120  Biso   1.000  N
  N19      1.0000 0.74612  0.61300  0.51120  Biso   1.000  N
  N20      1.0000 0.75388  0.11300  0.98880  Biso   1.000  N
  C85      1.0000 0.28964  0.52260  0.45000  Biso   1.000  C
  C86      1.0000 0.21036  0.02260  0.05000  Biso   1.000  C
  C87      1.0000 0.71036  0.47740  0.55000  Biso   1.000  C
  C88      1.0000 0.78964  0.97740  0.95000  Biso   1.000  C
  O33      1.0000 0.29315  0.61080  0.44372  Biso   1.000  O
  O34      1.0000 0.20685  0.11080  0.05628  Biso   1.000  O
  O35      1.0000 0.70685  0.38920  0.55628  Biso   1.000  O
  O36      1.0000 0.79315  0.88920  0.94372  Biso   1.000  O
  O37      1.0000 0.31237  0.45940  0.42700  Biso   1.000  O
  O38      1.0000 0.18763  0.95940  0.07300  Biso   1.000  O
  O39      1.0000 0.68763  0.54060  0.57300  Biso   1.000  O
  O40      1.0000 0.81237  0.04060  0.92700  Biso   1.000  O
  Cu7      1.0000 0.29605  0.32508  0.43741  Biso   1.000  Cu
  Cu8      1.0000 0.20395  0.82508  0.06259  Biso   1.000  Cu
  Cu9      1.0000 0.70395  0.67492  0.56259  Biso   1.000  Cu
  Cu10     1.0000 0.79605  0.17492  0.93741  Biso   1.000  Cu
  N21      1.0000 0.34667  0.27940  0.40220  Biso   1.000  N
  N22      1.0000 0.15333  0.77940  0.09780  Biso   1.000  N
  N23      1.0000 0.65333  0.72060  0.59780  Biso   1.000  N
  N24      1.0000 0.84667  0.22060  0.90220  Biso   1.000  N
  C89      1.0000 0.34647  0.27810  0.33060  Biso   1.000  C
  C90      1.0000 0.15353  0.77810  0.16940  Biso   1.000  C
  C91      1.0000 0.65353  0.72190  0.66940  Biso   1.000  C
  C92      1.0000 0.84647  0.22190  0.83060  Biso   1.000  C
  H57      1.0000 0.32430  0.30860  0.29870  Biso   1.000  H
  H58      1.0000 0.17570  0.80860  0.20130  Biso   1.000  H
  H59      1.0000 0.67570  0.69140  0.70130  Biso   1.000  H
  H60      1.0000 0.82430  0.19140  0.79870  Biso   1.000  H
  C93      1.0000 0.37975  0.24040  0.44760  Biso   1.000  C
  C94      1.0000 0.12025  0.74040  0.05240  Biso   1.000  C
  C95      1.0000 0.62025  0.75960  0.55240  Biso   1.000  C
  C96      1.0000 0.87975  0.25960  0.94760  Biso   1.000  C
  H61      1.0000 0.38130  0.24530  0.49860  Biso   1.000  H
  H62      1.0000 0.11870  0.74530  0.00140  Biso   1.000  H
  H63      1.0000 0.61870  0.75470  0.50140  Biso   1.000  H
  H64      1.0000 0.88130  0.25470  0.99860  Biso   1.000  H
  C97      1.0000 0.41169  0.19340  0.42190  Biso   1.000  C
  C98      1.0000 0.08831  0.69340  0.07810  Biso   1.000  C
  C99      1.0000 0.58831  0.80660  0.57810  Biso   1.000  C
  C100     1.0000 0.91169  0.30660  0.92190  Biso   1.000  C
  H65      1.0000 0.43440  0.16680  0.45500  Biso   1.000  H
  H66      1.0000 0.06560  0.66680  0.04500  Biso   1.000  H
  H67      1.0000 0.56560  0.83320  0.54500  Biso   1.000  H
  H68      1.0000 0.93440  0.33320  0.95500  Biso   1.000  H
  C101     1.0000 0.37707  0.23430  0.30080  Biso   1.000  C
  C102     1.0000 0.12293  0.73430  0.19920  Biso   1.000  C
  C103     1.0000 0.62293  0.76570  0.69920  Biso   1.000  C
  C104     1.0000 0.87707  0.26570  0.80080  Biso   1.000  C
  H69      1.0000 0.37610  0.23680  0.24980  Biso   1.000  H
  H70      1.0000 0.12390  0.73680  0.25020  Biso   1.000  H
  H71      1.0000 0.62390  0.76320  0.75020  Biso   1.000  H
  H72      1.0000 0.87610  0.26320  0.74980  Biso   1.000  H
  C105     1.0000 0.40937  0.18630  0.34640  Biso   1.000  C
  C106     1.0000 0.09063  0.68630  0.15360  Biso   1.000  C
  C107     1.0000 0.59063  0.81370  0.65360  Biso   1.000  C
  C108     1.0000 0.90937  0.31370  0.84640  Biso   1.000  C
  C109     1.0000 0.46920  0.28230  0.27110  Biso   1.000  C
  C110     1.0000 0.03080  0.78230  0.22890  Biso   1.000  C
  C111     1.0000 0.53080  0.71770  0.72890  Biso   1.000  C
  C112     1.0000 0.96920  0.21770  0.77110  Biso   1.000  C
  H73      1.0000 0.49680  0.30330  0.26570  Biso   1.000  H
  H74      1.0000 0.00320  0.80330  0.23430  Biso   1.000  H
  H75      1.0000 0.50320  0.69670  0.73430  Biso   1.000  H
  H76      1.0000 0.99680  0.19670  0.76570  Biso   1.000  H
  H77      1.0000 0.46230  0.31160  0.31480  Biso   1.000  H
  H78      1.0000 0.03770  0.81160  0.18520  Biso   1.000  H
  H79      1.0000 0.53770  0.68840  0.68520  Biso   1.000  H
  H80      1.0000 0.96230  0.18840  0.81480  Biso   1.000  H
  H81      1.0000 0.44880  0.30180  0.22820  Biso   1.000  H
  H82      1.0000 0.05120  0.80180  0.27180  Biso   1.000  H
  H83      1.0000 0.55120  0.69820  0.77180  Biso   1.000  H
  H84      1.0000 0.94880  0.19820  0.72820  Biso   1.000  H
  C113     1.0000 0.46873  0.17450  0.27830  Biso   1.000  C
  C114     1.0000 0.03127  0.67450  0.22170  Biso   1.000  C
  C115     1.0000 0.53127  0.82550  0.72170  Biso   1.000  C
  C116     1.0000 0.96873  0.32550  0.77830  Biso   1.000  C
  C117     1.0000 0.44072  0.12760  0.31620  Biso   1.000  C
  C118     1.0000 0.05928  0.62760  0.18380  Biso   1.000  C
  C119     1.0000 0.55928  0.87240  0.68380  Biso   1.000  C
  C120     1.0000 0.94072  0.37240  0.81620  Biso   1.000  C
  C121     1.0000 0.43916  0.02640  0.32290  Biso   1.000  C
  C122     1.0000 0.06084  0.52640  0.17710  Biso   1.000  C
  C123     1.0000 0.56084  0.97360  0.67710  Biso   1.000  C
  C124     1.0000 0.93916  0.47360  0.82290  Biso   1.000  C
  C125     1.0000 0.40638  0.97590  0.35650  Biso   1.000  C
  C126     1.0000 0.09362  0.47590  0.14350  Biso   1.000  C
  C127     1.0000 0.59362  0.02410  0.64350  Biso   1.000  C
  C128     1.0000 0.90638  0.52410  0.85650  Biso   1.000  C
  H85      1.0000 0.40900  0.90660  0.35140  Biso   1.000  H
  H86      1.0000 0.09100  0.40660  0.14860  Biso   1.000  H
  H87      1.0000 0.59100  0.09340  0.64860  Biso   1.000  H
  H88      1.0000 0.90900  0.59340  0.85140  Biso   1.000  H
  H89      1.0000 0.37880  0.99630  0.33150  Biso   1.000  H
  H90      1.0000 0.12120  0.49630  0.16850  Biso   1.000  H
  H91      1.0000 0.62120  0.00370  0.66850  Biso   1.000  H
  H92      1.0000 0.87880  0.50370  0.83150  Biso   1.000  H
  H93      1.0000 0.41020  0.99250  0.40830  Biso   1.000  H
  H94      1.0000 0.08980  0.49250  0.09170  Biso   1.000  H
  H95      1.0000 0.58980  0.00750  0.59170  Biso   1.000  H
  H96      1.0000 0.91020  0.50750  0.90830  Biso   1.000  H
  O41      1.0000 0.46459  0.96780  0.30030  Biso   1.000  O
  O42      1.0000 0.03541  0.46780  0.19970  Biso   1.000  O
  O43      1.0000 0.53541  0.03220  0.69970  Biso   1.000  O
  O44      1.0000 0.96459  0.53220  0.80030  Biso   1.000  O
  O45      1.0000 0.49503  0.13040  0.24750  Biso   1.000  O
  O46      1.0000 0.00497  0.63040  0.25250  Biso   1.000  O
  O47      1.0000 0.50497  0.86960  0.75250  Biso   1.000  O
  O48      1.0000 0.99503  0.36960  0.74750  Biso   1.000  O
  Cu11     1.0000 0.50669  0.99649  0.24626  Biso   1.000  Cu
  Cu12     1.0000 0.99331  0.49649  0.25374  Biso   1.000  Cu
  Cu13     1.0000 0.49331  0.00351  0.75374  Biso   1.000  Cu
  Cu14     1.0000 0.00669  0.50351  0.74626  Biso   1.000  Cu
  Cu15     1.0000 0.19879  0.82895  0.50730  Biso   1.000  Cu
  Cu16     1.0000 0.30121  0.32895  0.99270  Biso   1.000  Cu
  Cu17     1.0000 0.80121  0.17105  0.49270  Biso   1.000  Cu
  Cu18     1.0000 0.69879  0.67105  0.00730  Biso   1.000  Cu
  O49      1.0000 0.19542  0.95890  0.54860  Biso   1.000  O
  O50      1.0000 0.30458  0.45890  0.95140  Biso   1.000  O
  O51      1.0000 0.80458  0.04110  0.45140  Biso   1.000  O
  O52      1.0000 0.69542  0.54110  0.04860  Biso   1.000  O
  O53      1.0000 0.22296  0.10610  0.55170  Biso   1.000  O
  O54      1.0000 0.27704  0.60610  0.94830  Biso   1.000  O
  O55      1.0000 0.77704  0.89390  0.44830  Biso   1.000  O
  O56      1.0000 0.72296  0.39390  0.05170  Biso   1.000  O
  C129     1.0000 0.22202  0.02000  0.53530  Biso   1.000  C
  C130     1.0000 0.27798  0.52000  0.96470  Biso   1.000  C
  C131     1.0000 0.77798  0.98000  0.46470  Biso   1.000  C
  C132     1.0000 0.72202  0.48000  0.03530  Biso   1.000  C
  C133     1.0000 0.25446  0.97880  0.49620  Biso   1.000  C
  C134     1.0000 0.24554  0.47880  0.00380  Biso   1.000  C
  C135     1.0000 0.74554  0.02120  0.50380  Biso   1.000  C
  C136     1.0000 0.75446  0.52120  0.99620  Biso   1.000  C
  N25      1.0000 0.25005  0.88510  0.47960  Biso   1.000  N
  N26      1.0000 0.24995  0.38510  0.02040  Biso   1.000  N
  N27      1.0000 0.74995  0.11490  0.52040  Biso   1.000  N
  N28      1.0000 0.75005  0.61490  0.97960  Biso   1.000  N
  C137     1.0000 0.27740  0.84310  0.44540  Biso   1.000  C
  C138     1.0000 0.22260  0.34310  0.05460  Biso   1.000  C
  C139     1.0000 0.72260  0.15690  0.55460  Biso   1.000  C
  C140     1.0000 0.77740  0.65690  0.94540  Biso   1.000  C
  H97      1.0000 0.27470  0.77720  0.43350  Biso   1.000  H
  H98      1.0000 0.22530  0.27720  0.06650  Biso   1.000  H
  H99      1.0000 0.72530  0.22280  0.56650  Biso   1.000  H
  H100     1.0000 0.77470  0.72280  0.93350  Biso   1.000  H
  C141     1.0000 0.31010  0.89600  0.42720  Biso   1.000  C
  C142     1.0000 0.18990  0.39600  0.07280  Biso   1.000  C
  C143     1.0000 0.68990  0.10400  0.57280  Biso   1.000  C
  C144     1.0000 0.81010  0.60400  0.92720  Biso   1.000  C
  H101     1.0000 0.32940  0.86450  0.40370  Biso   1.000  H
  H102     1.0000 0.17060  0.36450  0.09630  Biso   1.000  H
  H103     1.0000 0.67060  0.13550  0.59630  Biso   1.000  H
  H104     1.0000 0.82940  0.63550  0.90370  Biso   1.000  H
  N29      1.0000 0.31499  0.98940  0.44180  Biso   1.000  N
  N30      1.0000 0.18501  0.48940  0.05820  Biso   1.000  N
  N31      1.0000 0.68501  0.01060  0.55820  Biso   1.000  N
  N32      1.0000 0.81499  0.51060  0.94180  Biso   1.000  N
  C145     1.0000 0.28693  0.03180  0.47710  Biso   1.000  C
  C146     1.0000 0.21307  0.53180  0.02290  Biso   1.000  C
  C147     1.0000 0.71307  0.96820  0.52290  Biso   1.000  C
  C148     1.0000 0.78693  0.46820  0.97710  Biso   1.000  C
  C149     1.0000 0.29489  0.13780  0.49290  Biso   1.000  C
  C150     1.0000 0.20511  0.63780  0.00710  Biso   1.000  C
  C151     1.0000 0.70511  0.86220  0.50710  Biso   1.000  C
  C152     1.0000 0.79489  0.36220  0.99290  Biso   1.000  C
  O57      1.0000 0.27589  0.19300  0.44390  Biso   1.000  O
  O58      1.0000 0.22411  0.69300  0.05610  Biso   1.000  O
  O59      1.0000 0.72411  0.80700  0.55610  Biso   1.000  O
  O60      1.0000 0.77589  0.30700  0.94390  Biso   1.000  O
  O61      1.0000 0.32088  0.16150  0.54800  Biso   1.000  O
  O62      1.0000 0.17912  0.66150  0.95200  Biso   1.000  O
  O63      1.0000 0.67912  0.83850  0.45200  Biso   1.000  O
  O64      1.0000 0.82088  0.33850  0.04800  Biso   1.000  O
  N33      1.0000 0.15499  0.78310  0.55950  Biso   1.000  N
  N34      1.0000 0.34501  0.28310  0.94050  Biso   1.000  N
  N35      1.0000 0.84501  0.21690  0.44050  Biso   1.000  N
  N36      1.0000 0.65499  0.71690  0.05950  Biso   1.000  N
  C153     1.0000 0.16062  0.78850  0.63320  Biso   1.000  C
  C154     1.0000 0.33938  0.28850  0.86680  Biso   1.000  C
  C155     1.0000 0.83938  0.21150  0.36680  Biso   1.000  C
  C156     1.0000 0.66062  0.71150  0.13320  Biso   1.000  C
  H105     1.0000 0.18380  0.82240  0.65940  Biso   1.000  H
  H106     1.0000 0.31620  0.32240  0.84060  Biso   1.000  H
  H107     1.0000 0.81620  0.17760  0.34060  Biso   1.000  H
  H108     1.0000 0.68380  0.67760  0.15940  Biso   1.000  H
  C157     1.0000 0.12130  0.73860  0.52320  Biso   1.000  C
  C158     1.0000 0.37870  0.23860  0.97680  Biso   1.000  C
  C159     1.0000 0.87870  0.26140  0.47680  Biso   1.000  C
  C160     1.0000 0.62130  0.76140  0.02320  Biso   1.000  C
  H109     1.0000 0.11640  0.73750  0.47150  Biso   1.000  H
  H110     1.0000 0.38360  0.23750  0.02850  Biso   1.000  H
  H111     1.0000 0.88360  0.26250  0.52850  Biso   1.000  H
  H112     1.0000 0.61640  0.76250  0.97150  Biso   1.000  H
  C161     1.0000 0.13306  0.74510  0.67160  Biso   1.000  C
  C162     1.0000 0.36694  0.24510  0.82840  Biso   1.000  C
  C163     1.0000 0.86694  0.25490  0.32840  Biso   1.000  C
  C164     1.0000 0.63306  0.75490  0.17160  Biso   1.000  C
  H113     1.0000 0.13740  0.75100  0.72300  Biso   1.000  H
  H114     1.0000 0.36260  0.25100  0.77700  Biso   1.000  H
  H115     1.0000 0.86260  0.24900  0.27700  Biso   1.000  H
  H116     1.0000 0.63740  0.74900  0.22300  Biso   1.000  H
  C165     1.0000 0.09272  0.69300  0.55960  Biso   1.000  C
  C166     1.0000 0.40728  0.19300  0.94040  Biso   1.000  C
  C167     1.0000 0.90728  0.30700  0.44040  Biso   1.000  C
  C168     1.0000 0.59272  0.80700  0.05960  Biso   1.000  C
  H117     1.0000 0.06900  0.66240  0.53220  Biso   1.000  H
  H118     1.0000 0.43100  0.16240  0.96780  Biso   1.000  H
  H119     1.0000 0.93100  0.33760  0.46780  Biso   1.000  H
  H120     1.0000 0.56900  0.83760  0.03220  Biso   1.000  H
  C169     1.0000 0.09932  0.69320  0.63450  Biso   1.000  C
  C170     1.0000 0.40068  0.19320  0.86550  Biso   1.000  C
  C171     1.0000 0.90068  0.30680  0.36550  Biso   1.000  C
  C172     1.0000 0.59932  0.80680  0.13450  Biso   1.000  C
  C173     1.0000 0.04420  0.78980  0.71910  Biso   1.000  C
  C174     1.0000 0.45580  0.28980  0.78090  Biso   1.000  C
  C175     1.0000 0.95580  0.21020  0.28090  Biso   1.000  C
  C176     1.0000 0.54420  0.71020  0.21910  Biso   1.000  C
  H121     1.0000 0.01790  0.81030  0.73100  Biso   1.000  H
  H122     1.0000 0.48210  0.31030  0.76900  Biso   1.000  H
  H123     1.0000 0.98210  0.18970  0.26900  Biso   1.000  H
  H124     1.0000 0.51790  0.68970  0.23100  Biso   1.000  H
  H125     1.0000 0.04730  0.81860  0.67280  Biso   1.000  H
  H126     1.0000 0.45270  0.31860  0.82720  Biso   1.000  H
  H127     1.0000 0.95270  0.18140  0.32720  Biso   1.000  H
  H128     1.0000 0.54730  0.68140  0.17280  Biso   1.000  H
  H129     1.0000 0.06700  0.81030  0.75770  Biso   1.000  H
  H130     1.0000 0.43300  0.31030  0.74230  Biso   1.000  H
  H131     1.0000 0.93300  0.18970  0.24230  Biso   1.000  H
  H132     1.0000 0.56700  0.68970  0.25770  Biso   1.000  H
  C177     1.0000 0.04464  0.68200  0.71250  Biso   1.000  C
  C178     1.0000 0.45536  0.18200  0.78750  Biso   1.000  C
  C179     1.0000 0.95536  0.31800  0.28750  Biso   1.000  C
  C180     1.0000 0.54464  0.81800  0.21250  Biso   1.000  C
  C181     1.0000 0.07106  0.63460  0.67250  Biso   1.000  C
  C182     1.0000 0.42894  0.13460  0.82750  Biso   1.000  C
  C183     1.0000 0.92894  0.36540  0.32750  Biso   1.000  C
  C184     1.0000 0.57106  0.86540  0.17250  Biso   1.000  C
  C185     1.0000 0.07309  0.53290  0.66710  Biso   1.000  C
  C186     1.0000 0.42691  0.03290  0.83290  Biso   1.000  C
  C187     1.0000 0.92691  0.46710  0.33290  Biso   1.000  C
  C188     1.0000 0.57309  0.96710  0.16710  Biso   1.000  C
  C189     1.0000 0.10462  0.48190  0.63120  Biso   1.000  C
  C190     1.0000 0.39538  0.98190  0.86880  Biso   1.000  C
  C191     1.0000 0.89538  0.51810  0.36880  Biso   1.000  C
  C192     1.0000 0.60462  0.01810  0.13120  Biso   1.000  C
  H133     1.0000 0.11460  0.42470  0.65930  Biso   1.000  H
  H134     1.0000 0.38540  0.92470  0.84070  Biso   1.000  H
  H135     1.0000 0.88540  0.57530  0.34070  Biso   1.000  H
  H136     1.0000 0.61460  0.07530  0.15930  Biso   1.000  H
  H137     1.0000 0.12790  0.52490  0.62960  Biso   1.000  H
  H138     1.0000 0.37210  0.02490  0.87040  Biso   1.000  H
  H139     1.0000 0.87210  0.47510  0.37040  Biso   1.000  H
  H140     1.0000 0.62790  0.97510  0.12960  Biso   1.000  H
  H141     1.0000 0.09160  0.46340  0.58150  Biso   1.000  H
  H142     1.0000 0.40840  0.96340  0.91850  Biso   1.000  H
  H143     1.0000 0.90840  0.53660  0.41850  Biso   1.000  H
  H144     1.0000 0.59160  0.03660  0.08150  Biso   1.000  H
  O65      1.0000 0.01883  0.63820  0.74590  Biso   1.000  O
  O66      1.0000 0.48117  0.13820  0.75410  Biso   1.000  O
  O67      1.0000 0.98117  0.36180  0.25410  Biso   1.000  O
  O68      1.0000 0.51883  0.86180  0.24590  Biso   1.000  O
  O69      1.0000 0.04908  0.47440  0.69330  Biso   1.000  O
  O70      1.0000 0.45092  0.97440  0.80670  Biso   1.000  O
  O71      1.0000 0.95092  0.52560  0.30670  Biso   1.000  O
  O72      1.0000 0.54908  0.02560  0.19330  Biso   1.000  O
  O73      1.0000 0.25004  0.31580  0.32820  Biso   1.000  O
  O74      1.0000 0.24996  0.81580  0.17180  Biso   1.000  O
  O75      1.0000 0.74996  0.68420  0.67180  Biso   1.000  O
  O76      1.0000 0.75004  0.18420  0.82820  Biso   1.000  O
  C193     1.0000 0.22556  0.35550  0.27870  Biso   1.000  C
  C194     1.0000 0.27444  0.85550  0.22130  Biso   1.000  C
  C195     1.0000 0.77444  0.64450  0.72130  Biso   1.000  C
  C196     1.0000 0.72556  0.14450  0.77870  Biso   1.000  C
  O77      1.0000 0.19928  0.31160  0.23090  Biso   1.000  O
  O78      1.0000 0.30072  0.81160  0.26910  Biso   1.000  O
  O79      1.0000 0.80072  0.68840  0.76910  Biso   1.000  O
  O80      1.0000 0.69928  0.18840  0.73090  Biso   1.000  O
  O81      1.0000 0.28658  0.39630  0.19632  Biso   1.000  O
  O82      1.0000 0.21342  0.89630  0.30368  Biso   1.000  O
  O83      1.0000 0.71342  0.60370  0.80368  Biso   1.000  O
  O84      1.0000 0.78658  0.10370  0.69632  Biso   1.000  O
  O85      1.0000 0.31263  0.54510  0.19820  Biso   1.000  O
  O86      1.0000 0.18737  0.04510  0.30180  Biso   1.000  O
  O87      1.0000 0.68737  0.45490  0.80180  Biso   1.000  O
  O88      1.0000 0.81263  0.95490  0.69820  Biso   1.000  O
  C197     1.0000 0.28690  0.48270  0.21260  Biso   1.000  C
  C198     1.0000 0.21310  0.98270  0.28740  Biso   1.000  C
  C199     1.0000 0.71310  0.51730  0.78740  Biso   1.000  C
  C200     1.0000 0.78690  0.01730  0.71260  Biso   1.000  C
  C201     1.0000 0.25474  0.52110  0.25350  Biso   1.000  C
  C202     1.0000 0.24526  0.02110  0.24650  Biso   1.000  C
  C203     1.0000 0.74526  0.47890  0.74650  Biso   1.000  C
  C204     1.0000 0.75474  0.97890  0.75350  Biso   1.000  C
  C205     1.0000 0.22461  0.46450  0.27770  Biso   1.000  C
  C206     1.0000 0.27539  0.96450  0.22230  Biso   1.000  C
  C207     1.0000 0.77539  0.53550  0.72230  Biso   1.000  C
  C208     1.0000 0.72461  0.03550  0.77770  Biso   1.000  C
  N37      1.0000 0.25629  0.61620  0.26520  Biso   1.000  N
  N38      1.0000 0.24371  0.11620  0.23480  Biso   1.000  N
  N39      1.0000 0.74371  0.38380  0.73480  Biso   1.000  N
  N40      1.0000 0.75629  0.88380  0.76520  Biso   1.000  N
  N41      1.0000 0.19508  0.50540  0.31010  Biso   1.000  N
  N42      1.0000 0.30492  0.00540  0.18990  Biso   1.000  N
  N43      1.0000 0.80492  0.49460  0.68990  Biso   1.000  N
  N44      1.0000 0.69508  0.99460  0.81010  Biso   1.000  N
  C209     1.0000 0.22751  0.65690  0.29720  Biso   1.000  C
  C210     1.0000 0.27249  0.15690  0.20280  Biso   1.000  C
  C211     1.0000 0.77249  0.34310  0.70280  Biso   1.000  C
  C212     1.0000 0.72751  0.84310  0.79720  Biso   1.000  C
  H145     1.0000 0.22780  0.72410  0.30460  Biso   1.000  H
  H146     1.0000 0.27220  0.22410  0.19540  Biso   1.000  H
  H147     1.0000 0.77220  0.27590  0.69540  Biso   1.000  H
  H148     1.0000 0.72780  0.77590  0.80460  Biso   1.000  H
  C213     1.0000 0.19691  0.60040  0.32000  Biso   1.000  C
  C214     1.0000 0.30309  0.10040  0.18000  Biso   1.000  C
  C215     1.0000 0.80309  0.39960  0.68000  Biso   1.000  C
  C216     1.0000 0.69691  0.89960  0.82000  Biso   1.000  C
  H149     1.0000 0.17700  0.63050  0.34290  Biso   1.000  H
  H150     1.0000 0.32300  0.13050  0.15710  Biso   1.000  H
  H151     1.0000 0.82300  0.36950  0.65710  Biso   1.000  H
  H152     1.0000 0.67700  0.86950  0.84290  Biso   1.000  H
  Cu19     1.0000 0.19271  0.17558  0.26244  Biso   1.000  Cu
  Cu20     1.0000 0.30729  0.67558  0.23756  Biso   1.000  Cu
  Cu21     1.0000 0.80729  0.82442  0.73756  Biso   1.000  Cu
  Cu22     1.0000 0.69271  0.32442  0.76244  Biso   1.000  Cu
  N45      1.0000 0.14880  0.21960  0.31490  Biso   1.000  N
  N46      1.0000 0.35120  0.71960  0.18510  Biso   1.000  N
  N47      1.0000 0.85120  0.78040  0.68510  Biso   1.000  N
  N48      1.0000 0.64880  0.28040  0.81490  Biso   1.000  N
  C217     1.0000 0.15305  0.21290  0.38710  Biso   1.000  C
  C218     1.0000 0.34695  0.71290  0.11290  Biso   1.000  C
  C219     1.0000 0.84695  0.78710  0.61290  Biso   1.000  C
  C220     1.0000 0.65305  0.28710  0.88710  Biso   1.000  C
  H153     1.0000 0.17560  0.17750  0.41350  Biso   1.000  H
  H154     1.0000 0.32440  0.67750  0.08650  Biso   1.000  H
  H155     1.0000 0.82440  0.82250  0.58650  Biso   1.000  H
  H156     1.0000 0.67560  0.32250  0.91350  Biso   1.000  H
  C221     1.0000 0.12548  0.25620  0.42530  Biso   1.000  C
  C222     1.0000 0.37452  0.75620  0.07470  Biso   1.000  C
  C223     1.0000 0.87452  0.74380  0.57470  Biso   1.000  C
  C224     1.0000 0.62548  0.24380  0.92530  Biso   1.000  C
  H157     1.0000 0.12960  0.24990  0.47670  Biso   1.000  H
  H158     1.0000 0.37040  0.74990  0.02330  Biso   1.000  H
  H159     1.0000 0.87040  0.75010  0.52330  Biso   1.000  H
  H160     1.0000 0.62960  0.25010  0.97670  Biso   1.000  H
  C225     1.0000 0.11525  0.26500  0.27770  Biso   1.000  C
  C226     1.0000 0.38475  0.76500  0.22230  Biso   1.000  C
  C227     1.0000 0.88475  0.73500  0.72230  Biso   1.000  C
  C228     1.0000 0.61525  0.23500  0.77770  Biso   1.000  C
  H161     1.0000 0.11100  0.26710  0.22610  Biso   1.000  H
  H162     1.0000 0.38900  0.76710  0.27390  Biso   1.000  H
  H163     1.0000 0.88900  0.73290  0.77390  Biso   1.000  H
  H164     1.0000 0.61100  0.23290  0.72610  Biso   1.000  H
  C229     1.0000 0.08627  0.30950  0.31290  Biso   1.000  C
  C230     1.0000 0.41373  0.80950  0.18710  Biso   1.000  C
  C231     1.0000 0.91373  0.69050  0.68710  Biso   1.000  C
  C232     1.0000 0.58627  0.19050  0.81290  Biso   1.000  C
  H165     1.0000 0.06280  0.34020  0.28500  Biso   1.000  H
  H166     1.0000 0.43720  0.84020  0.21500  Biso   1.000  H
  H167     1.0000 0.93720  0.65980  0.71500  Biso   1.000  H
  H168     1.0000 0.56280  0.15980  0.78500  Biso   1.000  H
  C233     1.0000 0.09185  0.30860  0.38760  Biso   1.000  C
  C234     1.0000 0.40815  0.80860  0.11240  Biso   1.000  C
  C235     1.0000 0.90815  0.69140  0.61240  Biso   1.000  C
  C236     1.0000 0.59185  0.19140  0.88760  Biso   1.000  C
  C237     1.0000 0.03330  0.21340  0.46580  Biso   1.000  C
  C238     1.0000 0.46670  0.71340  0.03420  Biso   1.000  C
  C239     1.0000 0.96670  0.78660  0.53420  Biso   1.000  C
  C240     1.0000 0.53330  0.28660  0.96580  Biso   1.000  C
  H169     1.0000 0.05490  0.19010  0.50560  Biso   1.000  H
  H170     1.0000 0.44510  0.69010  0.99440  Biso   1.000  H
  H171     1.0000 0.94510  0.80990  0.49440  Biso   1.000  H
  H172     1.0000 0.55490  0.30990  0.00560  Biso   1.000  H
  H173     1.0000 0.03750  0.18600  0.41970  Biso   1.000  H
  H174     1.0000 0.46250  0.68600  0.08030  Biso   1.000  H
  H175     1.0000 0.96250  0.81400  0.58030  Biso   1.000  H
  H176     1.0000 0.53750  0.31400  0.91970  Biso   1.000  H
  H177     1.0000 0.00610  0.19410  0.47470  Biso   1.000  H
  H178     1.0000 0.49390  0.69410  0.02530  Biso   1.000  H
  H179     1.0000 0.99390  0.80590  0.52530  Biso   1.000  H
  H180     1.0000 0.50610  0.30590  0.97470  Biso   1.000  H
  C241     1.0000 0.03531  0.32110  0.46210  Biso   1.000  C
  C242     1.0000 0.46469  0.82110  0.03790  Biso   1.000  C
  C243     1.0000 0.96469  0.67890  0.53790  Biso   1.000  C
  C244     1.0000 0.53531  0.17890  0.96210  Biso   1.000  C
  C245     1.0000 0.06356  0.36790  0.42460  Biso   1.000  C
  C246     1.0000 0.43644  0.86790  0.07540  Biso   1.000  C
  C247     1.0000 0.93644  0.63210  0.57540  Biso   1.000  C
  C248     1.0000 0.56356  0.13210  0.92460  Biso   1.000  C
  C249     1.0000 0.06656  0.46960  0.42110  Biso   1.000  C
  C250     1.0000 0.43344  0.96960  0.07890  Biso   1.000  C
  C251     1.0000 0.93344  0.53040  0.57890  Biso   1.000  C
  C252     1.0000 0.56656  0.03040  0.92110  Biso   1.000  C
  C253     1.0000 0.09979  0.51880  0.38850  Biso   1.000  C
  C254     1.0000 0.40021  0.01880  0.11150  Biso   1.000  C
  C255     1.0000 0.90021  0.48120  0.61150  Biso   1.000  C
  C256     1.0000 0.59979  0.98120  0.88850  Biso   1.000  C
  H181     1.0000 0.09050  0.52430  0.33570  Biso   1.000  H
  H182     1.0000 0.40950  0.02430  0.16430  Biso   1.000  H
  H183     1.0000 0.90950  0.47570  0.66430  Biso   1.000  H
  H184     1.0000 0.59050  0.97570  0.83570  Biso   1.000  H
  H185     1.0000 0.12530  0.48110  0.39910  Biso   1.000  H
  H186     1.0000 0.37470  0.98110  0.10090  Biso   1.000  H
  H187     1.0000 0.87470  0.51890  0.60090  Biso   1.000  H
  H188     1.0000 0.62530  0.01890  0.89910  Biso   1.000  H
  H189     1.0000 0.10500  0.58270  0.40980  Biso   1.000  H
  H190     1.0000 0.39500  0.08270  0.09020  Biso   1.000  H
  H191     1.0000 0.89500  0.41730  0.59020  Biso   1.000  H
  H192     1.0000 0.60500  0.91730  0.90980  Biso   1.000  H
  O89      1.0000 0.00959  0.36480  0.49470  Biso   1.000  O
  O90      1.0000 0.49041  0.86480  0.00530  Biso   1.000  O
  O91      1.0000 0.99041  0.63520  0.50530  Biso   1.000  O
  O92      1.0000 0.50959  0.13520  0.99470  Biso   1.000  O
  O93      1.0000 0.04267  0.52810  0.44780  Biso   1.000  O
  O94      1.0000 0.45733  0.02810  0.05220  Biso   1.000  O
  O95      1.0000 0.95733  0.47190  0.55220  Biso   1.000  O
  O96      1.0000 0.54267  0.97190  0.94780  Biso   1.000  O
  Cu23     1.0000 0.00000  0.50000  0.50000  Biso   1.000  Cu
  Cu24     1.0000 0.50000  0.00000  0.00000  Biso   1.000  Cu
  O97      1.0000 0.15056  0.15500  0.14950  Biso   1.000  O
  O98      1.0000 0.34944  0.65500  0.35050  Biso   1.000  O
  O99      1.0000 0.84944  0.84500  0.85050  Biso   1.000  O
  O100     1.0000 0.65056  0.34500  0.64950  Biso   1.000  O
  O101     1.0000 0.15625  0.85340  0.39500  Biso   1.000  O
  O102     1.0000 0.34375  0.35340  0.10500  Biso   1.000  O
  O103     1.0000 0.84375  0.14660  0.60500  Biso   1.000  O
  O104     1.0000 0.65625  0.64660  0.89500  Biso   1.000  O
