data_image0
_cell_length_a       13.4377
_cell_length_b       13.4377
_cell_length_c       14.853
_cell_angle_alpha    90
_cell_angle_beta     90
_cell_angle_gamma    120

_symmetry_space_group_name_H-M    "P 1"
_symmetry_int_tables_number       1

loop_
  _symmetry_equiv_pos_as_xyz
  'x, y, z'

loop_
  _atom_site_label
  _atom_site_occupancy
  _atom_site_fract_x
  _atom_site_fract_y
  _atom_site_fract_z
  _atom_site_thermal_displace_type
  _atom_site_B_iso_or_equiv
  _atom_site_type_symbol
  Ce1      1.0000 0.33330  0.66670  0.83078  Biso   1.000  Ce
  Ce2      1.0000 0.66660  0.33330  0.66922  Biso   1.000  Ce
  Ce3      1.0000 0.66670  0.33330  0.16922  Biso   1.000  Ce
  Ce4      1.0000 0.33340  0.66670  0.33078  Biso   1.000  Ce
  Cu1      1.0000 0.50000  0.50000  0.00000  Biso   1.000  Cu
  Cu2      1.0000 0.50000  0.00000  0.00000  Biso   1.000  Cu
  Cu3      1.0000 0.00000  0.50000  0.00000  Biso   1.000  Cu
  Cu4      1.0000 0.00000  0.50000  0.50000  Biso   1.000  Cu
  Cu5      1.0000 0.50000  0.00000  0.50000  Biso   1.000  Cu
  Cu6      1.0000 0.50000  0.50000  0.50000  Biso   1.000  Cu
  O1       1.0000 0.36270  0.54730  0.94280  Biso   1.000  O
  O2       1.0000 0.45270  0.81540  0.94280  Biso   1.000  O
  O3       1.0000 0.18460  0.63730  0.94280  Biso   1.000  O
  O4       1.0000 0.81540  0.45270  0.55720  Biso   1.000  O
  O5       1.0000 0.63730  0.18460  0.55720  Biso   1.000  O
  O6       1.0000 0.54730  0.36270  0.55720  Biso   1.000  O
  O7       1.0000 0.63730  0.45270  0.05720  Biso   1.000  O
  O8       1.0000 0.54730  0.18460  0.05720  Biso   1.000  O
  O9       1.0000 0.81540  0.36270  0.05720  Biso   1.000  O
  O10      1.0000 0.18460  0.54730  0.44280  Biso   1.000  O
  O11      1.0000 0.36270  0.81540  0.44280  Biso   1.000  O
  O12      1.0000 0.45270  0.63730  0.44280  Biso   1.000  O
  O13      1.0000 0.19730  0.43810  0.87570  Biso   1.000  O
  O14      1.0000 0.56190  0.75920  0.87570  Biso   1.000  O
  O15      1.0000 0.24080  0.80270  0.87570  Biso   1.000  O
  O16      1.0000 0.75920  0.56190  0.62430  Biso   1.000  O
  O17      1.0000 0.80270  0.24080  0.62430  Biso   1.000  O
  O18      1.0000 0.43810  0.19730  0.62430  Biso   1.000  O
  O19      1.0000 0.80270  0.56190  0.12430  Biso   1.000  O
  O20      1.0000 0.43810  0.24080  0.12430  Biso   1.000  O
  O21      1.0000 0.75920  0.19730  0.12430  Biso   1.000  O
  O22      1.0000 0.24080  0.43810  0.37570  Biso   1.000  O
  O23      1.0000 0.19730  0.75920  0.37570  Biso   1.000  O
  O24      1.0000 0.56190  0.80270  0.37570  Biso   1.000  O
  O25      1.0000 0.43610  0.61400  0.22460  Biso   1.000  O
  O26      1.0000 0.38600  0.82210  0.22460  Biso   1.000  O
  O27      1.0000 0.17790  0.56390  0.22460  Biso   1.000  O
  O28      1.0000 0.82210  0.38600  0.27540  Biso   1.000  O
  O29      1.0000 0.56390  0.17790  0.27540  Biso   1.000  O
  O30      1.0000 0.61400  0.43610  0.27540  Biso   1.000  O
  O31      1.0000 0.56390  0.38600  0.77540  Biso   1.000  O
  O32      1.0000 0.61400  0.17790  0.77540  Biso   1.000  O
  O33      1.0000 0.82210  0.43610  0.77540  Biso   1.000  O
  O34      1.0000 0.17790  0.61400  0.72460  Biso   1.000  O
  O35      1.0000 0.43610  0.82210  0.72460  Biso   1.000  O
  O36      1.0000 0.38600  0.56390  0.72460  Biso   1.000  O
  O37      1.0000 0.52360  0.59740  0.10540  Biso   1.000  O
  O38      1.0000 0.40260  0.92620  0.10540  Biso   1.000  O
  O39      1.0000 0.07380  0.47640  0.10540  Biso   1.000  O
  O40      1.0000 0.92620  0.40260  0.39460  Biso   1.000  O
  O41      1.0000 0.47640  0.07380  0.39460  Biso   1.000  O
  O42      1.0000 0.59740  0.52360  0.39460  Biso   1.000  O
  O43      1.0000 0.47640  0.40260  0.89460  Biso   1.000  O
  O44      1.0000 0.59740  0.07380  0.89460  Biso   1.000  O
  O45      1.0000 0.92620  0.52360  0.89460  Biso   1.000  O
  O46      1.0000 0.07380  0.59740  0.60540  Biso   1.000  O
  O47      1.0000 0.52360  0.92620  0.60540  Biso   1.000  O
  O48      1.0000 0.40260  0.47640  0.60540  Biso   1.000  O
  N1       1.0000 0.34900  0.38880  0.05790  Biso   1.000  N
  N2       1.0000 0.61120  0.96020  0.05790  Biso   1.000  N
  N3       1.0000 0.03980  0.65100  0.05790  Biso   1.000  N
  N4       1.0000 0.96020  0.61120  0.44210  Biso   1.000  N
  N5       1.0000 0.65100  0.03980  0.44210  Biso   1.000  N
  N6       1.0000 0.38880  0.34900  0.44210  Biso   1.000  N
  N7       1.0000 0.65100  0.61120  0.94210  Biso   1.000  N
  N8       1.0000 0.38880  0.03980  0.94210  Biso   1.000  N
  N9       1.0000 0.96020  0.34900  0.94210  Biso   1.000  N
  N10      1.0000 0.03980  0.38880  0.55790  Biso   1.000  N
  N11      1.0000 0.34900  0.96020  0.55790  Biso   1.000  N
  N12      1.0000 0.61120  0.65100  0.55790  Biso   1.000  N
  H1       1.0000 0.35220  0.32610  0.07710  Biso   1.000  H
  H2       1.0000 0.67390  0.02610  0.07710  Biso   1.000  H
  H3       1.0000 0.97390  0.64780  0.07710  Biso   1.000  H
  H4       1.0000 0.02610  0.67390  0.42290  Biso   1.000  H
  H5       1.0000 0.64780  0.97390  0.42290  Biso   1.000  H
  H6       1.0000 0.32610  0.35220  0.42290  Biso   1.000  H
  H7       1.0000 0.64780  0.67390  0.92290  Biso   1.000  H
  H8       1.0000 0.32610  0.97390  0.92290  Biso   1.000  H
  H9       1.0000 0.02610  0.35220  0.92290  Biso   1.000  H
  H10      1.0000 0.97390  0.32610  0.57710  Biso   1.000  H
  H11      1.0000 0.35220  0.02610  0.57710  Biso   1.000  H
  H12      1.0000 0.67390  0.64780  0.57710  Biso   1.000  H
  C1       1.0000 0.27170  0.45150  0.93240  Biso   1.000  C
  C2       1.0000 0.54850  0.82020  0.93240  Biso   1.000  C
  C3       1.0000 0.17980  0.72830  0.93240  Biso   1.000  C
  C4       1.0000 0.82020  0.54850  0.56760  Biso   1.000  C
  C5       1.0000 0.72830  0.17980  0.56760  Biso   1.000  C
  C6       1.0000 0.45150  0.27170  0.56760  Biso   1.000  C
  C7       1.0000 0.72830  0.54850  0.06760  Biso   1.000  C
  C8       1.0000 0.45150  0.17980  0.06760  Biso   1.000  C
  C9       1.0000 0.82020  0.27170  0.06760  Biso   1.000  C
  C10      1.0000 0.17980  0.45150  0.43240  Biso   1.000  C
  C11      1.0000 0.27170  0.82020  0.43240  Biso   1.000  C
  C12      1.0000 0.54850  0.72830  0.43240  Biso   1.000  C
  C13      1.0000 0.25620  0.35200  0.99040  Biso   1.000  C
  C14      1.0000 0.64800  0.90420  0.99040  Biso   1.000  C
  C15      1.0000 0.09580  0.74380  0.99040  Biso   1.000  C
  C16      1.0000 0.90420  0.64800  0.50960  Biso   1.000  C
  C17      1.0000 0.74380  0.09580  0.50960  Biso   1.000  C
  C18      1.0000 0.35200  0.25620  0.50960  Biso   1.000  C
  C19      1.0000 0.74380  0.64800  0.00960  Biso   1.000  C
  C20      1.0000 0.35200  0.09580  0.00960  Biso   1.000  C
  C21      1.0000 0.90420  0.25620  0.00960  Biso   1.000  C
  C22      1.0000 0.09580  0.35200  0.49040  Biso   1.000  C
  C23      1.0000 0.25620  0.90420  0.49040  Biso   1.000  C
  C24      1.0000 0.64800  0.74380  0.49040  Biso   1.000  C
  H13      1.0000 0.18270  0.31900  0.02100  Biso   1.000  H
  H14      1.0000 0.68100  0.86370  0.02100  Biso   1.000  H
  H15      1.0000 0.13630  0.81730  0.02100  Biso   1.000  H
  H16      1.0000 0.86370  0.68100  0.47900  Biso   1.000  H
  H17      1.0000 0.81730  0.13630  0.47900  Biso   1.000  H
  H18      1.0000 0.31900  0.18270  0.47900  Biso   1.000  H
  H19      1.0000 0.81730  0.68100  0.97900  Biso   1.000  H
  H20      1.0000 0.31900  0.13630  0.97900  Biso   1.000  H
  H21      1.0000 0.86370  0.18270  0.97900  Biso   1.000  H
  H22      1.0000 0.13630  0.31900  0.52100  Biso   1.000  H
  H23      1.0000 0.18270  0.86370  0.52100  Biso   1.000  H
  H24      1.0000 0.68100  0.81730  0.52100  Biso   1.000  H
  H25      1.0000 0.25550  0.29310  0.95230  Biso   1.000  H
  H26      1.0000 0.70690  0.96240  0.95230  Biso   1.000  H
  H27      1.0000 0.03760  0.74450  0.95230  Biso   1.000  H
  H28      1.0000 0.96240  0.70690  0.54770  Biso   1.000  H
  H29      1.0000 0.74450  0.03760  0.54770  Biso   1.000  H
  H30      1.0000 0.29310  0.25550  0.54770  Biso   1.000  H
  H31      1.0000 0.74450  0.70690  0.04770  Biso   1.000  H
  H32      1.0000 0.29310  0.03760  0.04770  Biso   1.000  H
  H33      1.0000 0.96240  0.25550  0.04770  Biso   1.000  H
  H34      1.0000 0.03760  0.29310  0.45230  Biso   1.000  H
  H35      1.0000 0.25550  0.96240  0.45230  Biso   1.000  H
  H36      1.0000 0.70690  0.74450  0.45230  Biso   1.000  H
  C25      1.0000 0.33490  0.44820  0.13770  Biso   1.000  C
  C26      1.0000 0.55180  0.88670  0.13770  Biso   1.000  C
  C27      1.0000 0.11330  0.66510  0.13770  Biso   1.000  C
  C28      1.0000 0.88670  0.55180  0.36230  Biso   1.000  C
  C29      1.0000 0.66510  0.11330  0.36230  Biso   1.000  C
  C30      1.0000 0.44820  0.33490  0.36230  Biso   1.000  C
  C31      1.0000 0.66510  0.55180  0.86230  Biso   1.000  C
  C32      1.0000 0.44820  0.11330  0.86230  Biso   1.000  C
  C33      1.0000 0.88670  0.33490  0.86230  Biso   1.000  C
  C34      1.0000 0.11330  0.44820  0.63770  Biso   1.000  C
  C35      1.0000 0.33490  0.88670  0.63770  Biso   1.000  C
  C36      1.0000 0.55180  0.66510  0.63770  Biso   1.000  C
  H37      1.0000 0.27040  0.46020  0.12720  Biso   1.000  H
  H38      1.0000 0.53980  0.81020  0.12720  Biso   1.000  H
  H39      1.0000 0.18980  0.72960  0.12720  Biso   1.000  H
  H40      1.0000 0.81020  0.53980  0.37280  Biso   1.000  H
  H41      1.0000 0.72960  0.18980  0.37280  Biso   1.000  H
  H42      1.0000 0.46020  0.27040  0.37280  Biso   1.000  H
  H43      1.0000 0.72960  0.53980  0.87280  Biso   1.000  H
  H44      1.0000 0.46020  0.18980  0.87280  Biso   1.000  H
  H45      1.0000 0.81020  0.27040  0.87280  Biso   1.000  H
  H46      1.0000 0.18980  0.46020  0.62720  Biso   1.000  H
  H47      1.0000 0.27040  0.81020  0.62720  Biso   1.000  H
  H48      1.0000 0.53980  0.72960  0.62720  Biso   1.000  H
  H49      1.0000 0.31700  0.39900  0.19000  Biso   1.000  H
  H50      1.0000 0.60100  0.91800  0.19000  Biso   1.000  H
  H51      1.0000 0.08200  0.68300  0.19000  Biso   1.000  H
  H52      1.0000 0.91800  0.60100  0.31000  Biso   1.000  H
  H53      1.0000 0.68300  0.08200  0.31000  Biso   1.000  H
  H54      1.0000 0.39900  0.31700  0.31000  Biso   1.000  H
  H55      1.0000 0.68300  0.60100  0.81000  Biso   1.000  H
  H56      1.0000 0.39900  0.08200  0.81000  Biso   1.000  H
  H57      1.0000 0.91800  0.31700  0.81000  Biso   1.000  H
  H58      1.0000 0.08200  0.39900  0.69000  Biso   1.000  H
  H59      1.0000 0.31700  0.91800  0.69000  Biso   1.000  H
  H60      1.0000 0.60100  0.68300  0.69000  Biso   1.000  H
  C37      1.0000 0.43770  0.55960  0.15700  Biso   1.000  C
  C38      1.0000 0.44040  0.87810  0.15700  Biso   1.000  C
  C39      1.0000 0.12190  0.56230  0.15700  Biso   1.000  C
  C40      1.0000 0.87810  0.44040  0.34300  Biso   1.000  C
  C41      1.0000 0.56230  0.12190  0.34300  Biso   1.000  C
  C42      1.0000 0.55960  0.43770  0.34300  Biso   1.000  C
  C43      1.0000 0.56230  0.44040  0.84300  Biso   1.000  C
  C44      1.0000 0.55960  0.12190  0.84300  Biso   1.000  C
  C45      1.0000 0.87810  0.43770  0.84300  Biso   1.000  C
  C46      1.0000 0.12190  0.55960  0.65700  Biso   1.000  C
  C47      1.0000 0.43770  0.87810  0.65700  Biso   1.000  C
  C48      1.0000 0.44040  0.56230  0.65700  Biso   1.000  C
  O49      1.0000 0.72120  0.72120  0.25000  Biso   1.000  O
  O50      1.0000 0.27880  0.00000  0.25000  Biso   1.000  O
  O51      1.0000 0.00000  0.27880  0.25000  Biso   1.000  O
  O52      1.0000 0.27880  0.27880  0.75000  Biso   1.000  O
  O53      1.0000 0.72120  0.00000  0.75000  Biso   1.000  O
  O54      1.0000 0.00000  0.72120  0.75000  Biso   1.000  O
