data_image0
_cell_length_a       13.3238
_cell_length_b       13.3238
_cell_length_c       14.3368
_cell_angle_alpha    90
_cell_angle_beta     90
_cell_angle_gamma    120

_symmetry_space_group_name_H-M    "P 1"
_symmetry_int_tables_number       1

loop_
  _symmetry_equiv_pos_as_xyz
  'x, y, z'

loop_
  _atom_site_label
  _atom_site_occupancy
  _atom_site_fract_x
  _atom_site_fract_y
  _atom_site_fract_z
  _atom_site_thermal_displace_type
  _atom_site_B_iso_or_equiv
  _atom_site_type_symbol
  Ho1      1.0000 0.33330  0.66670  0.83266  Biso   1.000  Ho
  Ho2      1.0000 0.66670  0.33330  0.66734  Biso   1.000  Ho
  Ho3      1.0000 0.66670  0.33330  0.16734  Biso   1.000  Ho
  Ho4      1.0000 0.33330  0.66670  0.33266  Biso   1.000  Ho
  Cu1      1.0000 0.50000  0.50000  0.00000  Biso   1.000  Cu
  Cu2      1.0000 0.50000  0.00000  0.00000  Biso   1.000  Cu
  Cu3      1.0000 0.00000  0.50000  0.00000  Biso   1.000  Cu
  Cu4      1.0000 0.50000  0.50000  0.50000  Biso   1.000  Cu
  Cu5      1.0000 0.00000  0.50000  0.50000  Biso   1.000  Cu
  Cu6      1.0000 0.50000  0.00000  0.50000  Biso   1.000  Cu
  O1       1.0000 0.36060  0.55010  0.94060  Biso   1.000  O
  O2       1.0000 0.44990  0.81050  0.94060  Biso   1.000  O
  O3       1.0000 0.18950  0.63940  0.94060  Biso   1.000  O
  O4       1.0000 0.55010  0.36060  0.55940  Biso   1.000  O
  O5       1.0000 0.81050  0.44990  0.55940  Biso   1.000  O
  O6       1.0000 0.63940  0.18950  0.55940  Biso   1.000  O
  O7       1.0000 0.63940  0.44990  0.05940  Biso   1.000  O
  O8       1.0000 0.55010  0.18950  0.05940  Biso   1.000  O
  O9       1.0000 0.81050  0.36060  0.05940  Biso   1.000  O
  O10      1.0000 0.44990  0.63940  0.44060  Biso   1.000  O
  O11      1.0000 0.18950  0.55010  0.44060  Biso   1.000  O
  O12      1.0000 0.36060  0.81050  0.44060  Biso   1.000  O
  O13      1.0000 0.19320  0.43930  0.87180  Biso   1.000  O
  O14      1.0000 0.56070  0.75390  0.87180  Biso   1.000  O
  O15      1.0000 0.24610  0.80680  0.87180  Biso   1.000  O
  O16      1.0000 0.43930  0.19320  0.62820  Biso   1.000  O
  O17      1.0000 0.75390  0.56070  0.62820  Biso   1.000  O
  O18      1.0000 0.80680  0.24610  0.62820  Biso   1.000  O
  O19      1.0000 0.80680  0.56070  0.12820  Biso   1.000  O
  O20      1.0000 0.43930  0.24610  0.12820  Biso   1.000  O
  O21      1.0000 0.75390  0.19320  0.12820  Biso   1.000  O
  O22      1.0000 0.56070  0.80680  0.37180  Biso   1.000  O
  O23      1.0000 0.24610  0.43930  0.37180  Biso   1.000  O
  O24      1.0000 0.19320  0.75390  0.37180  Biso   1.000  O
  O25      1.0000 0.43440  0.61960  0.22940  Biso   1.000  O
  O26      1.0000 0.38040  0.81480  0.22940  Biso   1.000  O
  O27      1.0000 0.18520  0.56560  0.22940  Biso   1.000  O
  O28      1.0000 0.61960  0.43440  0.27060  Biso   1.000  O
  O29      1.0000 0.81480  0.38040  0.27060  Biso   1.000  O
  O30      1.0000 0.56560  0.18520  0.27060  Biso   1.000  O
  O31      1.0000 0.56560  0.38040  0.77060  Biso   1.000  O
  O32      1.0000 0.61960  0.18520  0.77060  Biso   1.000  O
  O33      1.0000 0.81480  0.43440  0.77060  Biso   1.000  O
  O34      1.0000 0.38040  0.56560  0.72940  Biso   1.000  O
  O35      1.0000 0.18520  0.61960  0.72940  Biso   1.000  O
  O36      1.0000 0.43440  0.81480  0.72940  Biso   1.000  O
  O37      1.0000 0.52420  0.59800  0.10890  Biso   1.000  O
  O38      1.0000 0.40200  0.92620  0.10890  Biso   1.000  O
  O39      1.0000 0.07380  0.47580  0.10890  Biso   1.000  O
  O40      1.0000 0.59800  0.52420  0.39110  Biso   1.000  O
  O41      1.0000 0.92620  0.40200  0.39110  Biso   1.000  O
  O42      1.0000 0.47580  0.07380  0.39110  Biso   1.000  O
  O43      1.0000 0.47580  0.40200  0.89110  Biso   1.000  O
  O44      1.0000 0.59800  0.07380  0.89110  Biso   1.000  O
  O45      1.0000 0.92620  0.52420  0.89110  Biso   1.000  O
  O46      1.0000 0.40200  0.47580  0.60890  Biso   1.000  O
  O47      1.0000 0.07380  0.59800  0.60890  Biso   1.000  O
  O48      1.0000 0.52420  0.92620  0.60890  Biso   1.000  O
  N1       1.0000 0.34760  0.39050  0.05880  Biso   1.000  N
  N2       1.0000 0.60950  0.95710  0.05880  Biso   1.000  N
  N3       1.0000 0.04290  0.65240  0.05880  Biso   1.000  N
  N4       1.0000 0.39050  0.34760  0.44120  Biso   1.000  N
  N5       1.0000 0.95710  0.60950  0.44120  Biso   1.000  N
  N6       1.0000 0.65240  0.04290  0.44120  Biso   1.000  N
  N7       1.0000 0.65240  0.60950  0.94120  Biso   1.000  N
  N8       1.0000 0.39050  0.04290  0.94120  Biso   1.000  N
  N9       1.0000 0.95710  0.34760  0.94120  Biso   1.000  N
  N10      1.0000 0.60950  0.65240  0.55880  Biso   1.000  N
  N11      1.0000 0.04290  0.39050  0.55880  Biso   1.000  N
  N12      1.0000 0.34760  0.95710  0.55880  Biso   1.000  N
  H1       1.0000 0.35000  0.32700  0.07900  Biso   1.000  H
  H2       1.0000 0.67300  0.02300  0.07900  Biso   1.000  H
  H3       1.0000 0.97700  0.65000  0.07900  Biso   1.000  H
  H4       1.0000 0.32700  0.35000  0.42100  Biso   1.000  H
  H5       1.0000 0.02300  0.67300  0.42100  Biso   1.000  H
  H6       1.0000 0.65000  0.97700  0.42100  Biso   1.000  H
  H7       1.0000 0.65000  0.67300  0.92100  Biso   1.000  H
  H8       1.0000 0.32700  0.97700  0.92100  Biso   1.000  H
  H9       1.0000 0.02300  0.35000  0.92100  Biso   1.000  H
  H10      1.0000 0.67300  0.65000  0.57900  Biso   1.000  H
  H11      1.0000 0.97700  0.32700  0.57900  Biso   1.000  H
  H12      1.0000 0.35000  0.02300  0.57900  Biso   1.000  H
  C1       1.0000 0.26840  0.45340  0.93030  Biso   1.000  C
  C2       1.0000 0.54660  0.81500  0.93030  Biso   1.000  C
  C3       1.0000 0.18500  0.73160  0.93030  Biso   1.000  C
  C4       1.0000 0.45340  0.26840  0.56970  Biso   1.000  C
  C5       1.0000 0.81500  0.54660  0.56970  Biso   1.000  C
  C6       1.0000 0.73160  0.18500  0.56970  Biso   1.000  C
  C7       1.0000 0.73160  0.54660  0.06970  Biso   1.000  C
  C8       1.0000 0.45340  0.18500  0.06970  Biso   1.000  C
  C9       1.0000 0.81500  0.26840  0.06970  Biso   1.000  C
  C10      1.0000 0.54660  0.73160  0.43030  Biso   1.000  C
  C11      1.0000 0.18500  0.45340  0.43030  Biso   1.000  C
  C12      1.0000 0.26840  0.81500  0.43030  Biso   1.000  C
  C13      1.0000 0.25350  0.35310  0.98880  Biso   1.000  C
  C14      1.0000 0.64690  0.90040  0.98880  Biso   1.000  C
  C15      1.0000 0.09960  0.74650  0.98880  Biso   1.000  C
  C16      1.0000 0.35310  0.25350  0.51120  Biso   1.000  C
  C17      1.0000 0.90040  0.64690  0.51120  Biso   1.000  C
  C18      1.0000 0.74650  0.09960  0.51120  Biso   1.000  C
  C19      1.0000 0.74650  0.64690  0.01120  Biso   1.000  C
  C20      1.0000 0.35310  0.09960  0.01120  Biso   1.000  C
  C21      1.0000 0.90040  0.25350  0.01120  Biso   1.000  C
  C22      1.0000 0.64690  0.74650  0.48880  Biso   1.000  C
  C23      1.0000 0.09960  0.35310  0.48880  Biso   1.000  C
  C24      1.0000 0.25350  0.90040  0.48880  Biso   1.000  C
  H13      1.0000 0.17940  0.31890  0.02060  Biso   1.000  H
  H14      1.0000 0.68110  0.86050  0.02060  Biso   1.000  H
  H15      1.0000 0.13950  0.82060  0.02060  Biso   1.000  H
  H16      1.0000 0.31890  0.17940  0.47940  Biso   1.000  H
  H17      1.0000 0.86050  0.68110  0.47940  Biso   1.000  H
  H18      1.0000 0.82060  0.13950  0.47940  Biso   1.000  H
  H19      1.0000 0.82060  0.68110  0.97940  Biso   1.000  H
  H20      1.0000 0.31890  0.13950  0.97940  Biso   1.000  H
  H21      1.0000 0.86050  0.17940  0.97940  Biso   1.000  H
  H22      1.0000 0.68110  0.82060  0.52060  Biso   1.000  H
  H23      1.0000 0.13950  0.31890  0.52060  Biso   1.000  H
  H24      1.0000 0.17940  0.86050  0.52060  Biso   1.000  H
  H25      1.0000 0.25350  0.29450  0.94870  Biso   1.000  H
  H26      1.0000 0.70550  0.95900  0.94870  Biso   1.000  H
  H27      1.0000 0.04100  0.74650  0.94870  Biso   1.000  H
  H28      1.0000 0.29450  0.25350  0.55130  Biso   1.000  H
  H29      1.0000 0.95900  0.70550  0.55130  Biso   1.000  H
  H30      1.0000 0.74650  0.04100  0.55130  Biso   1.000  H
  H31      1.0000 0.74650  0.70550  0.05130  Biso   1.000  H
  H32      1.0000 0.29450  0.04100  0.05130  Biso   1.000  H
  H33      1.0000 0.95900  0.25350  0.05130  Biso   1.000  H
  H34      1.0000 0.70550  0.74650  0.44870  Biso   1.000  H
  H35      1.0000 0.04100  0.29450  0.44870  Biso   1.000  H
  H36      1.0000 0.25350  0.95900  0.44870  Biso   1.000  H
  C25      1.0000 0.33180  0.44870  0.14040  Biso   1.000  C
  C26      1.0000 0.55130  0.88310  0.14040  Biso   1.000  C
  C27      1.0000 0.11690  0.66820  0.14040  Biso   1.000  C
  C28      1.0000 0.44870  0.33180  0.35960  Biso   1.000  C
  C29      1.0000 0.88310  0.55130  0.35960  Biso   1.000  C
  C30      1.0000 0.66820  0.11690  0.35960  Biso   1.000  C
  C31      1.0000 0.66820  0.55130  0.85960  Biso   1.000  C
  C32      1.0000 0.44870  0.11690  0.85960  Biso   1.000  C
  C33      1.0000 0.88310  0.33180  0.85960  Biso   1.000  C
  C34      1.0000 0.55130  0.66820  0.64040  Biso   1.000  C
  C35      1.0000 0.11690  0.44870  0.64040  Biso   1.000  C
  C36      1.0000 0.33180  0.88310  0.64040  Biso   1.000  C
  H37      1.0000 0.31380  0.39890  0.19450  Biso   1.000  H
  H38      1.0000 0.60110  0.91490  0.19450  Biso   1.000  H
  H39      1.0000 0.08510  0.68620  0.19450  Biso   1.000  H
  H40      1.0000 0.39890  0.31380  0.30550  Biso   1.000  H
  H41      1.0000 0.91490  0.60110  0.30550  Biso   1.000  H
  H42      1.0000 0.68620  0.08510  0.30550  Biso   1.000  H
  H43      1.0000 0.68620  0.60110  0.80550  Biso   1.000  H
  H44      1.0000 0.39890  0.08510  0.80550  Biso   1.000  H
  H45      1.0000 0.91490  0.31380  0.80550  Biso   1.000  H
  H46      1.0000 0.60110  0.68620  0.69450  Biso   1.000  H
  H47      1.0000 0.08510  0.39890  0.69450  Biso   1.000  H
  H48      1.0000 0.31380  0.91490  0.69450  Biso   1.000  H
  H49      1.0000 0.26650  0.46030  0.12910  Biso   1.000  H
  H50      1.0000 0.53970  0.80620  0.12910  Biso   1.000  H
  H51      1.0000 0.19380  0.73350  0.12910  Biso   1.000  H
  H52      1.0000 0.46030  0.26650  0.37090  Biso   1.000  H
  H53      1.0000 0.80620  0.53970  0.37090  Biso   1.000  H
  H54      1.0000 0.73350  0.19380  0.37090  Biso   1.000  H
  H55      1.0000 0.73350  0.53970  0.87090  Biso   1.000  H
  H56      1.0000 0.46030  0.19380  0.87090  Biso   1.000  H
  H57      1.0000 0.80620  0.26650  0.87090  Biso   1.000  H
  H58      1.0000 0.53970  0.73350  0.62910  Biso   1.000  H
  H59      1.0000 0.19380  0.46030  0.62910  Biso   1.000  H
  H60      1.0000 0.26650  0.80620  0.62910  Biso   1.000  H
  C37      1.0000 0.43700  0.56320  0.16070  Biso   1.000  C
  C38      1.0000 0.43680  0.87380  0.16070  Biso   1.000  C
  C39      1.0000 0.12620  0.56300  0.16070  Biso   1.000  C
  C40      1.0000 0.56320  0.43700  0.33930  Biso   1.000  C
  C41      1.0000 0.87380  0.43680  0.33930  Biso   1.000  C
  C42      1.0000 0.56300  0.12620  0.33930  Biso   1.000  C
  C43      1.0000 0.56300  0.43680  0.83930  Biso   1.000  C
  C44      1.0000 0.56320  0.12620  0.83930  Biso   1.000  C
  C45      1.0000 0.87380  0.43700  0.83930  Biso   1.000  C
  C46      1.0000 0.43680  0.56300  0.66070  Biso   1.000  C
  C47      1.0000 0.12620  0.56320  0.66070  Biso   1.000  C
  C48      1.0000 0.43700  0.87380  0.66070  Biso   1.000  C
  O49      1.0000 0.27430  0.00000  0.25000  Biso   1.000  O
  O50      1.0000 0.00000  0.27430  0.25000  Biso   1.000  O
  O51      1.0000 0.72570  0.72570  0.25000  Biso   1.000  O
  O52      1.0000 0.72570  0.00000  0.75000  Biso   1.000  O
  O53      1.0000 0.00000  0.72570  0.75000  Biso   1.000  O
  O54      1.0000 0.27430  0.27430  0.75000  Biso   1.000  O
