data_image0
_cell_length_a       23.1092
_cell_length_b       18.8031
_cell_length_c       29.8062
_cell_angle_alpha    90
_cell_angle_beta     105.325
_cell_angle_gamma    90

_symmetry_space_group_name_H-M    "P 1"
_symmetry_int_tables_number       1

loop_
  _symmetry_equiv_pos_as_xyz
  'x, y, z'

loop_
  _atom_site_label
  _atom_site_occupancy
  _atom_site_fract_x
  _atom_site_fract_y
  _atom_site_fract_z
  _atom_site_thermal_displace_type
  _atom_site_B_iso_or_equiv
  _atom_site_type_symbol
  C1       1.0000 0.31130  0.63230  0.01470  Biso   1.000  C
  C2       1.0000 0.81130  0.13230  0.51470  Biso   1.000  C
  C3       1.0000 0.68870  0.63230  0.98530  Biso   1.000  C
  C4       1.0000 0.18870  0.13230  0.48530  Biso   1.000  C
  C5       1.0000 0.68870  0.36770  0.98530  Biso   1.000  C
  C6       1.0000 0.18870  0.86770  0.48530  Biso   1.000  C
  C7       1.0000 0.31130  0.36770  0.01470  Biso   1.000  C
  C8       1.0000 0.81130  0.86770  0.51470  Biso   1.000  C
  C9       1.0000 0.34480  0.56700  0.01650  Biso   1.000  C
  C10      1.0000 0.84480  0.06700  0.51650  Biso   1.000  C
  C11      1.0000 0.65520  0.56700  0.98350  Biso   1.000  C
  C12      1.0000 0.15520  0.06700  0.48350  Biso   1.000  C
  C13      1.0000 0.65520  0.43300  0.98350  Biso   1.000  C
  C14      1.0000 0.15520  0.93300  0.48350  Biso   1.000  C
  C15      1.0000 0.34480  0.43300  0.01650  Biso   1.000  C
  C16      1.0000 0.84480  0.93300  0.51650  Biso   1.000  C
  C17      1.0000 0.40140  0.56430  0.01150  Biso   1.000  C
  C18      1.0000 0.90140  0.06430  0.51150  Biso   1.000  C
  C19      1.0000 0.59860  0.56430  0.98850  Biso   1.000  C
  C20      1.0000 0.09860  0.06430  0.48850  Biso   1.000  C
  C21      1.0000 0.59860  0.43570  0.98850  Biso   1.000  C
  C22      1.0000 0.09860  0.93570  0.48850  Biso   1.000  C
  C23      1.0000 0.40140  0.43570  0.01150  Biso   1.000  C
  C24      1.0000 0.90140  0.93570  0.51150  Biso   1.000  C
  H1       1.0000 0.41850  0.60800  0.00790  Biso   1.000  H
  H2       1.0000 0.91850  0.10800  0.50790  Biso   1.000  H
  H3       1.0000 0.58150  0.60800  0.99210  Biso   1.000  H
  H4       1.0000 0.08150  0.10800  0.49210  Biso   1.000  H
  H5       1.0000 0.58150  0.39200  0.99210  Biso   1.000  H
  H6       1.0000 0.08150  0.89200  0.49210  Biso   1.000  H
  H7       1.0000 0.41850  0.39200  0.00790  Biso   1.000  H
  H8       1.0000 0.91850  0.89200  0.50790  Biso   1.000  H
  C25      1.0000 0.44090  0.50000  0.01080  Biso   1.000  C
  C26      1.0000 0.94090  0.00000  0.51080  Biso   1.000  C
  C27      1.0000 0.55910  0.50000  0.98920  Biso   1.000  C
  C28      1.0000 0.05910  0.00000  0.48920  Biso   1.000  C
  C29      1.0000 0.31190  0.50000  0.01940  Biso   1.000  C
  C30      1.0000 0.81190  0.00000  0.51940  Biso   1.000  C
  C31      1.0000 0.68810  0.50000  0.98060  Biso   1.000  C
  C32      1.0000 0.18810  0.00000  0.48060  Biso   1.000  C
  H9       1.0000 0.27300  0.50000  0.02280  Biso   1.000  H
  H10      1.0000 0.77300  0.00000  0.52280  Biso   1.000  H
  H11      1.0000 0.72700  0.50000  0.97720  Biso   1.000  H
  H12      1.0000 0.22700  0.00000  0.47720  Biso   1.000  H
  C33      1.0000 0.29450  0.77280  0.09460  Biso   1.000  C
  C34      1.0000 0.79450  0.27280  0.59460  Biso   1.000  C
  C35      1.0000 0.70550  0.77280  0.90540  Biso   1.000  C
  C36      1.0000 0.20550  0.27280  0.40540  Biso   1.000  C
  C37      1.0000 0.70550  0.22720  0.90540  Biso   1.000  C
  C38      1.0000 0.20550  0.72720  0.40540  Biso   1.000  C
  C39      1.0000 0.29450  0.22720  0.09460  Biso   1.000  C
  C40      1.0000 0.79450  0.72720  0.59460  Biso   1.000  C
  N1       1.0000 0.50000  0.50000  0.00000  Biso   1.000  N
  N2       1.0000 0.00000  0.00000  0.50000  Biso   1.000  N
  O1       1.0000 0.58440  0.92450  0.24753  Biso   1.000  O
  O2       1.0000 0.08440  0.42450  0.74753  Biso   1.000  O
  O3       1.0000 0.41560  0.92450  0.75247  Biso   1.000  O
  O4       1.0000 0.91560  0.42450  0.25247  Biso   1.000  O
  O5       1.0000 0.41560  0.07550  0.75247  Biso   1.000  O
  O6       1.0000 0.91560  0.57550  0.25247  Biso   1.000  O
  O7       1.0000 0.58440  0.07550  0.24753  Biso   1.000  O
  O8       1.0000 0.08440  0.57550  0.74753  Biso   1.000  O
  O9       1.0000 0.44480  0.93090  0.26950  Biso   1.000  O
  O10      1.0000 0.94480  0.43090  0.76950  Biso   1.000  O
  O11      1.0000 0.55520  0.93090  0.73050  Biso   1.000  O
  O12      1.0000 0.05520  0.43090  0.23050  Biso   1.000  O
  O13      1.0000 0.55520  0.06910  0.73050  Biso   1.000  O
  O14      1.0000 0.05520  0.56910  0.23050  Biso   1.000  O
  O15      1.0000 0.44480  0.06910  0.26950  Biso   1.000  O
  O16      1.0000 0.94480  0.56910  0.76950  Biso   1.000  O
  C41      1.0000 0.10360  0.94360  0.00260  Biso   1.000  C
  C42      1.0000 0.60360  0.44360  0.50260  Biso   1.000  C
  C43      1.0000 0.89640  0.94360  0.99740  Biso   1.000  C
  C44      1.0000 0.39640  0.44360  0.49740  Biso   1.000  C
  C45      1.0000 0.89640  0.05640  0.99740  Biso   1.000  C
  C46      1.0000 0.39640  0.55640  0.49740  Biso   1.000  C
  C47      1.0000 0.10360  0.05640  0.00260  Biso   1.000  C
  C48      1.0000 0.60360  0.55640  0.50260  Biso   1.000  C
  H13      1.0000 0.08830  0.89830  0.00450  Biso   1.000  H
  H14      1.0000 0.58830  0.39830  0.50450  Biso   1.000  H
  H15      1.0000 0.91170  0.89830  0.99550  Biso   1.000  H
  H16      1.0000 0.41170  0.39830  0.49550  Biso   1.000  H
  H17      1.0000 0.91170  0.10170  0.99550  Biso   1.000  H
  H18      1.0000 0.41170  0.60170  0.49550  Biso   1.000  H
  H19      1.0000 0.08830  0.10170  0.00450  Biso   1.000  H
  H20      1.0000 0.58830  0.60170  0.50450  Biso   1.000  H
  C49      1.0000 0.06220  0.00000  0.00270  Biso   1.000  C
  C50      1.0000 0.56220  0.50000  0.50270  Biso   1.000  C
  C51      1.0000 0.93780  0.00000  0.99730  Biso   1.000  C
  C52      1.0000 0.43780  0.50000  0.49730  Biso   1.000  C
  N3       1.0000 0.00000  0.98400  0.00000  Biso   1.000  N
  N4       1.0000 0.50000  0.48400  0.50000  Biso   1.000  N
  N5       1.0000 0.00000  0.01600  0.00000  Biso   1.000  N
  N6       1.0000 0.50000  0.51600  0.50000  Biso   1.000  N
  C53      1.0000 0.72130  0.77550  0.42160  Biso   1.000  C
  C54      1.0000 0.22130  0.27550  0.92160  Biso   1.000  C
  C55      1.0000 0.27870  0.77550  0.57840  Biso   1.000  C
  C56      1.0000 0.77870  0.27550  0.07840  Biso   1.000  C
  C57      1.0000 0.27870  0.22450  0.57840  Biso   1.000  C
  C58      1.0000 0.77870  0.72450  0.07840  Biso   1.000  C
  C59      1.0000 0.72130  0.22450  0.42160  Biso   1.000  C
  C60      1.0000 0.22130  0.72450  0.92160  Biso   1.000  C
  C61      1.0000 0.69920  0.78370  0.37240  Biso   1.000  C
  C62      1.0000 0.19920  0.28370  0.87240  Biso   1.000  C
  C63      1.0000 0.30080  0.78370  0.62760  Biso   1.000  C
  C64      1.0000 0.80080  0.28370  0.12760  Biso   1.000  C
  C65      1.0000 0.30080  0.21630  0.62760  Biso   1.000  C
  C66      1.0000 0.80080  0.71630  0.12760  Biso   1.000  C
  C67      1.0000 0.69920  0.21630  0.37240  Biso   1.000  C
  C68      1.0000 0.19920  0.71630  0.87240  Biso   1.000  C
  C69      1.0000 0.73250  0.75040  0.34370  Biso   1.000  C
  C70      1.0000 0.23250  0.25040  0.84370  Biso   1.000  C
  C71      1.0000 0.26750  0.75040  0.65630  Biso   1.000  C
  C72      1.0000 0.76750  0.25040  0.15630  Biso   1.000  C
  C73      1.0000 0.26750  0.24960  0.65630  Biso   1.000  C
  C74      1.0000 0.76750  0.74960  0.15630  Biso   1.000  C
  C75      1.0000 0.73250  0.24960  0.34370  Biso   1.000  C
  C76      1.0000 0.23250  0.74960  0.84370  Biso   1.000  C
  H21      1.0000 0.76370  0.71920  0.35620  Biso   1.000  H
  H22      1.0000 0.26370  0.21920  0.85620  Biso   1.000  H
  H23      1.0000 0.23630  0.71920  0.64380  Biso   1.000  H
  H24      1.0000 0.73630  0.21920  0.14380  Biso   1.000  H
  H25      1.0000 0.23630  0.28080  0.64380  Biso   1.000  H
  H26      1.0000 0.73630  0.78080  0.14380  Biso   1.000  H
  H27      1.0000 0.76370  0.28080  0.35620  Biso   1.000  H
  H28      1.0000 0.26370  0.78080  0.85620  Biso   1.000  H
  C77      1.0000 0.71600  0.76690  0.29570  Biso   1.000  C
  C78      1.0000 0.21600  0.26690  0.79570  Biso   1.000  C
  C79      1.0000 0.28400  0.76690  0.70430  Biso   1.000  C
  C80      1.0000 0.78400  0.26690  0.20430  Biso   1.000  C
  C81      1.0000 0.28400  0.23310  0.70430  Biso   1.000  C
  C82      1.0000 0.78400  0.73310  0.20430  Biso   1.000  C
  C83      1.0000 0.71600  0.23310  0.29570  Biso   1.000  C
  C84      1.0000 0.21600  0.73310  0.79570  Biso   1.000  C
  C85      1.0000 0.67280  0.82260  0.27910  Biso   1.000  C
  C86      1.0000 0.17280  0.32260  0.77910  Biso   1.000  C
  C87      1.0000 0.32720  0.82260  0.72090  Biso   1.000  C
  C88      1.0000 0.82720  0.32260  0.22090  Biso   1.000  C
  C89      1.0000 0.32720  0.17740  0.72090  Biso   1.000  C
  C90      1.0000 0.82720  0.67740  0.22090  Biso   1.000  C
  C91      1.0000 0.67280  0.17740  0.27910  Biso   1.000  C
  C92      1.0000 0.17280  0.67740  0.77910  Biso   1.000  C
  H29      1.0000 0.66570  0.83780  0.24850  Biso   1.000  H
  H30      1.0000 0.16570  0.33780  0.74850  Biso   1.000  H
  H31      1.0000 0.33430  0.83780  0.75150  Biso   1.000  H
  H32      1.0000 0.83430  0.33780  0.25150  Biso   1.000  H
  H33      1.0000 0.33430  0.16220  0.75150  Biso   1.000  H
  H34      1.0000 0.83430  0.66220  0.25150  Biso   1.000  H
  H35      1.0000 0.66570  0.16220  0.24850  Biso   1.000  H
  H36      1.0000 0.16570  0.66220  0.74850  Biso   1.000  H
  C93      1.0000 0.64120  0.85450  0.30800  Biso   1.000  C
  C94      1.0000 0.14120  0.35450  0.80800  Biso   1.000  C
  C95      1.0000 0.35880  0.85450  0.69200  Biso   1.000  C
  C96      1.0000 0.85880  0.35450  0.19200  Biso   1.000  C
  C97      1.0000 0.35880  0.14550  0.69200  Biso   1.000  C
  C98      1.0000 0.85880  0.64550  0.19200  Biso   1.000  C
  C99      1.0000 0.64120  0.14550  0.30800  Biso   1.000  C
  C100     1.0000 0.14120  0.64550  0.80800  Biso   1.000  C
  C101     1.0000 0.65430  0.83390  0.35630  Biso   1.000  C
  C102     1.0000 0.15430  0.33390  0.85630  Biso   1.000  C
  C103     1.0000 0.34570  0.83390  0.64370  Biso   1.000  C
  C104     1.0000 0.84570  0.33390  0.14370  Biso   1.000  C
  C105     1.0000 0.34570  0.16610  0.64370  Biso   1.000  C
  C106     1.0000 0.84570  0.66610  0.14370  Biso   1.000  C
  C107     1.0000 0.65430  0.16610  0.35630  Biso   1.000  C
  C108     1.0000 0.15430  0.66610  0.85630  Biso   1.000  C
  H37      1.0000 0.63330  0.85350  0.37600  Biso   1.000  H
  H38      1.0000 0.13330  0.35350  0.87600  Biso   1.000  H
  H39      1.0000 0.36670  0.85350  0.62400  Biso   1.000  H
  H40      1.0000 0.86670  0.35350  0.12400  Biso   1.000  H
  H41      1.0000 0.36670  0.14650  0.62400  Biso   1.000  H
  H42      1.0000 0.86670  0.64650  0.12400  Biso   1.000  H
  H43      1.0000 0.63330  0.14650  0.37600  Biso   1.000  H
  H44      1.0000 0.13330  0.64650  0.87600  Biso   1.000  H
  C109     1.0000 0.59270  0.90200  0.29090  Biso   1.000  C
  C110     1.0000 0.09270  0.40200  0.79090  Biso   1.000  C
  C111     1.0000 0.40730  0.90200  0.70910  Biso   1.000  C
  C112     1.0000 0.90730  0.40200  0.20910  Biso   1.000  C
  C113     1.0000 0.40730  0.09800  0.70910  Biso   1.000  C
  C114     1.0000 0.90730  0.59800  0.20910  Biso   1.000  C
  C115     1.0000 0.59270  0.09800  0.29090  Biso   1.000  C
  C116     1.0000 0.09270  0.59800  0.79090  Biso   1.000  C
  C117     1.0000 0.19790  0.87640  0.99970  Biso   1.000  C
  C118     1.0000 0.69790  0.37640  0.49970  Biso   1.000  C
  C119     1.0000 0.80210  0.87640  0.00030  Biso   1.000  C
  C120     1.0000 0.30210  0.37640  0.50030  Biso   1.000  C
  C121     1.0000 0.80210  0.12360  0.00030  Biso   1.000  C
  C122     1.0000 0.30210  0.62360  0.50030  Biso   1.000  C
  C123     1.0000 0.19790  0.12360  0.99970  Biso   1.000  C
  C124     1.0000 0.69790  0.62360  0.49970  Biso   1.000  C
  C125     1.0000 0.16280  0.94460  0.00010  Biso   1.000  C
  C126     1.0000 0.66280  0.44460  0.50010  Biso   1.000  C
  C127     1.0000 0.83720  0.94460  0.99990  Biso   1.000  C
  C128     1.0000 0.33720  0.44460  0.49990  Biso   1.000  C
  C129     1.0000 0.83720  0.05540  0.99990  Biso   1.000  C
  C130     1.0000 0.33720  0.55540  0.49990  Biso   1.000  C
  C131     1.0000 0.16280  0.05540  0.00010  Biso   1.000  C
  C132     1.0000 0.66280  0.55540  0.50010  Biso   1.000  C
  C133     1.0000 0.19610  0.00000  0.99910  Biso   1.000  C
  C134     1.0000 0.69610  0.50000  0.49910  Biso   1.000  C
  C135     1.0000 0.80390  0.00000  0.00090  Biso   1.000  C
  C136     1.0000 0.30390  0.50000  0.50090  Biso   1.000  C
  H45      1.0000 0.23590  0.00000  0.99790  Biso   1.000  H
  H46      1.0000 0.73590  0.50000  0.49790  Biso   1.000  H
  H47      1.0000 0.76410  0.00000  0.00210  Biso   1.000  H
  H48      1.0000 0.26410  0.50000  0.50210  Biso   1.000  H
  C137     1.0000 0.43390  0.91310  0.22970  Biso   1.000  C
  C138     1.0000 0.93390  0.41310  0.72970  Biso   1.000  C
  C139     1.0000 0.56610  0.91310  0.77030  Biso   1.000  C
  C140     1.0000 0.06610  0.41310  0.27030  Biso   1.000  C
  C141     1.0000 0.56610  0.08690  0.77030  Biso   1.000  C
  C142     1.0000 0.06610  0.58690  0.27030  Biso   1.000  C
  C143     1.0000 0.43390  0.08690  0.22970  Biso   1.000  C
  C144     1.0000 0.93390  0.58690  0.72970  Biso   1.000  C
  C145     1.0000 0.38490  0.85770  0.20990  Biso   1.000  C
  C146     1.0000 0.88490  0.35770  0.70990  Biso   1.000  C
  C147     1.0000 0.61510  0.85770  0.79010  Biso   1.000  C
  C148     1.0000 0.11510  0.35770  0.29010  Biso   1.000  C
  C149     1.0000 0.61510  0.14230  0.79010  Biso   1.000  C
  C150     1.0000 0.11510  0.64230  0.29010  Biso   1.000  C
  C151     1.0000 0.38490  0.14230  0.20990  Biso   1.000  C
  C152     1.0000 0.88490  0.64230  0.70990  Biso   1.000  C
  C153     1.0000 0.36760  0.83710  0.16400  Biso   1.000  C
  C154     1.0000 0.86760  0.33710  0.66400  Biso   1.000  C
  C155     1.0000 0.63240  0.83710  0.83600  Biso   1.000  C
  C156     1.0000 0.13240  0.33710  0.33600  Biso   1.000  C
  C157     1.0000 0.63240  0.16290  0.83600  Biso   1.000  C
  C158     1.0000 0.13240  0.66290  0.33600  Biso   1.000  C
  C159     1.0000 0.36760  0.16290  0.16400  Biso   1.000  C
  C160     1.0000 0.86760  0.66290  0.66400  Biso   1.000  C
  H49      1.0000 0.39250  0.84800  0.14500  Biso   1.000  H
  H50      1.0000 0.89250  0.34800  0.64500  Biso   1.000  H
  H51      1.0000 0.60750  0.84800  0.85500  Biso   1.000  H
  H52      1.0000 0.10750  0.34800  0.35500  Biso   1.000  H
  H53      1.0000 0.60750  0.15200  0.85500  Biso   1.000  H
  H54      1.0000 0.10750  0.65200  0.35500  Biso   1.000  H
  H55      1.0000 0.39250  0.15200  0.14500  Biso   1.000  H
  H56      1.0000 0.89250  0.65200  0.64500  Biso   1.000  H
  C161     1.0000 0.31580  0.80150  0.14520  Biso   1.000  C
  C162     1.0000 0.81580  0.30150  0.64520  Biso   1.000  C
  C163     1.0000 0.68420  0.80150  0.85480  Biso   1.000  C
  C164     1.0000 0.18420  0.30150  0.35480  Biso   1.000  C
  C165     1.0000 0.68420  0.19850  0.85480  Biso   1.000  C
  C166     1.0000 0.18420  0.69850  0.35480  Biso   1.000  C
  C167     1.0000 0.31580  0.19850  0.14520  Biso   1.000  C
  C168     1.0000 0.81580  0.69850  0.64520  Biso   1.000  C
  C169     1.0000 0.28270  0.77560  0.17580  Biso   1.000  C
  C170     1.0000 0.78270  0.27560  0.67580  Biso   1.000  C
  C171     1.0000 0.71730  0.77560  0.82420  Biso   1.000  C
  C172     1.0000 0.21730  0.27560  0.32420  Biso   1.000  C
  C173     1.0000 0.71730  0.22440  0.82420  Biso   1.000  C
  C174     1.0000 0.21730  0.72440  0.32420  Biso   1.000  C
  C175     1.0000 0.28270  0.22440  0.17580  Biso   1.000  C
  C176     1.0000 0.78270  0.72440  0.67580  Biso   1.000  C
  H57      1.0000 0.24860  0.74810  0.16420  Biso   1.000  H
  H58      1.0000 0.74860  0.24810  0.66420  Biso   1.000  H
  H59      1.0000 0.75140  0.74810  0.83580  Biso   1.000  H
  H60      1.0000 0.25140  0.24810  0.33580  Biso   1.000  H
  H61      1.0000 0.75140  0.25190  0.83580  Biso   1.000  H
  H62      1.0000 0.25140  0.75190  0.33580  Biso   1.000  H
  H63      1.0000 0.24860  0.25190  0.16420  Biso   1.000  H
  H64      1.0000 0.74860  0.75190  0.66420  Biso   1.000  H
  C177     1.0000 0.30030  0.79080  0.22090  Biso   1.000  C
  C178     1.0000 0.80030  0.29080  0.72090  Biso   1.000  C
  C179     1.0000 0.69970  0.79080  0.77910  Biso   1.000  C
  C180     1.0000 0.19970  0.29080  0.27910  Biso   1.000  C
  C181     1.0000 0.69970  0.20920  0.77910  Biso   1.000  C
  C182     1.0000 0.19970  0.70920  0.27910  Biso   1.000  C
  C183     1.0000 0.30030  0.20920  0.22090  Biso   1.000  C
  C184     1.0000 0.80030  0.70920  0.72090  Biso   1.000  C
  C185     1.0000 0.35000  0.83350  0.23920  Biso   1.000  C
  C186     1.0000 0.85000  0.33350  0.73920  Biso   1.000  C
  C187     1.0000 0.65000  0.83350  0.76080  Biso   1.000  C
  C188     1.0000 0.15000  0.33350  0.26080  Biso   1.000  C
  C189     1.0000 0.65000  0.16650  0.76080  Biso   1.000  C
  C190     1.0000 0.15000  0.66650  0.26080  Biso   1.000  C
  C191     1.0000 0.35000  0.16650  0.23920  Biso   1.000  C
  C192     1.0000 0.85000  0.66650  0.73920  Biso   1.000  C
  H65      1.0000 0.36030  0.84600  0.27050  Biso   1.000  H
  H66      1.0000 0.86030  0.34600  0.77050  Biso   1.000  H
  H67      1.0000 0.63970  0.84600  0.72950  Biso   1.000  H
  H68      1.0000 0.13970  0.34600  0.22950  Biso   1.000  H
  H69      1.0000 0.63970  0.15400  0.72950  Biso   1.000  H
  H70      1.0000 0.13970  0.65400  0.22950  Biso   1.000  H
  H71      1.0000 0.36030  0.15400  0.27050  Biso   1.000  H
  H72      1.0000 0.86030  0.65400  0.77050  Biso   1.000  H
  H73      1.0000 0.41124  0.86973  0.99704  Biso   1.000  H
  H74      1.0000 0.91124  0.36973  0.49704  Biso   1.000  H
  H75      1.0000 0.58876  0.86973  0.00296  Biso   1.000  H
  H76      1.0000 0.08876  0.36973  0.50296  Biso   1.000  H
  H77      1.0000 0.58876  0.13027  0.00296  Biso   1.000  H
  H78      1.0000 0.08876  0.63027  0.50296  Biso   1.000  H
  H79      1.0000 0.41124  0.13027  0.99704  Biso   1.000  H
  H80      1.0000 0.91124  0.63027  0.49704  Biso   1.000  H
  H81      1.0000 0.87062  0.65960  0.51797  Biso   1.000  H
  H82      1.0000 0.37062  0.15960  0.01797  Biso   1.000  H
  H83      1.0000 0.12938  0.65960  0.48203  Biso   1.000  H
  H84      1.0000 0.62938  0.15960  0.98203  Biso   1.000  H
  H85      1.0000 0.12938  0.34040  0.48203  Biso   1.000  H
  H86      1.0000 0.62938  0.84040  0.98203  Biso   1.000  H
  H87      1.0000 0.87062  0.34040  0.51797  Biso   1.000  H
  H88      1.0000 0.37062  0.84040  0.01797  Biso   1.000  H
  H89      1.0000 0.60108  0.82168  0.54581  Biso   1.000  H
  H90      1.0000 0.10108  0.32168  0.04581  Biso   1.000  H
  H91      1.0000 0.39892  0.82168  0.45419  Biso   1.000  H
  H92      1.0000 0.89892  0.32168  0.95419  Biso   1.000  H
  H93      1.0000 0.39892  0.17832  0.45419  Biso   1.000  H
  H94      1.0000 0.89892  0.67832  0.95419  Biso   1.000  H
  H95      1.0000 0.60108  0.17832  0.54581  Biso   1.000  H
  H96      1.0000 0.10108  0.67832  0.04581  Biso   1.000  H
  H97      1.0000 0.64428  0.86610  0.53134  Biso   1.000  H
  H98      1.0000 0.14428  0.36610  0.03134  Biso   1.000  H
  H99      1.0000 0.35572  0.86610  0.46866  Biso   1.000  H
  H100     1.0000 0.85572  0.36610  0.96866  Biso   1.000  H
  H101     1.0000 0.35572  0.13390  0.46866  Biso   1.000  H
  H102     1.0000 0.85572  0.63390  0.96866  Biso   1.000  H
  H103     1.0000 0.64428  0.13390  0.53134  Biso   1.000  H
  H104     1.0000 0.14428  0.63390  0.03134  Biso   1.000  H
  H105     1.0000 0.57543  0.00000  0.18019  Biso   1.000  H
  H106     1.0000 0.07543  0.50000  0.68019  Biso   1.000  H
  H107     1.0000 0.42457  0.00000  0.81981  Biso   1.000  H
  H108     1.0000 0.92457  0.50000  0.31981  Biso   1.000  H
  H109     1.0000 0.53752  0.00000  0.15943  Biso   1.000  H
  H110     1.0000 0.03752  0.50000  0.65943  Biso   1.000  H
  H111     1.0000 0.46248  0.00000  0.84057  Biso   1.000  H
  H112     1.0000 0.96248  0.50000  0.34057  Biso   1.000  H
  H113     1.0000 0.45022  0.00000  0.37828  Biso   1.000  H
  H114     1.0000 0.95022  0.50000  0.87828  Biso   1.000  H
  H115     1.0000 0.54978  0.00000  0.62172  Biso   1.000  H
  H116     1.0000 0.04978  0.50000  0.12172  Biso   1.000  H
  H117     1.0000 0.50970  0.00000  0.38301  Biso   1.000  H
  H118     1.0000 0.00970  0.50000  0.88301  Biso   1.000  H
  H119     1.0000 0.49030  0.00000  0.61699  Biso   1.000  H
  H120     1.0000 0.99030  0.50000  0.11699  Biso   1.000  H
  Cu1      1.0000 0.30287  0.78934  0.00228  Biso   1.000  Cu
  Cu2      1.0000 0.80287  0.28934  0.50228  Biso   1.000  Cu
  Cu3      1.0000 0.69713  0.78934  0.99772  Biso   1.000  Cu
  Cu4      1.0000 0.19713  0.28934  0.49772  Biso   1.000  Cu
  Cu5      1.0000 0.69713  0.21066  0.99772  Biso   1.000  Cu
  Cu6      1.0000 0.19713  0.71066  0.49772  Biso   1.000  Cu
  Cu7      1.0000 0.30287  0.21066  0.00228  Biso   1.000  Cu
  Cu8      1.0000 0.80287  0.71066  0.50228  Biso   1.000  Cu
  Cu9      1.0000 0.70835  0.77908  0.51577  Biso   1.000  Cu
  Cu10     1.0000 0.20835  0.27908  0.01577  Biso   1.000  Cu
  Cu11     1.0000 0.29165  0.77908  0.48423  Biso   1.000  Cu
  Cu12     1.0000 0.79165  0.27908  0.98423  Biso   1.000  Cu
  Cu13     1.0000 0.29165  0.22092  0.48423  Biso   1.000  Cu
  Cu14     1.0000 0.79165  0.72092  0.98423  Biso   1.000  Cu
  Cu15     1.0000 0.70835  0.22092  0.51577  Biso   1.000  Cu
  Cu16     1.0000 0.20835  0.72092  0.01577  Biso   1.000  Cu
  Cu17     1.0000 0.52714  0.00000  0.21719  Biso   1.000  Cu
  Cu18     1.0000 0.02714  0.50000  0.71719  Biso   1.000  Cu
  Cu19     1.0000 0.47286  0.00000  0.78281  Biso   1.000  Cu
  Cu20     1.0000 0.97286  0.50000  0.28281  Biso   1.000  Cu
  Cu21     1.0000 0.50048  0.00000  0.29883  Biso   1.000  Cu
  Cu22     1.0000 0.00048  0.50000  0.79883  Biso   1.000  Cu
  Cu23     1.0000 0.49952  0.00000  0.70117  Biso   1.000  Cu
  Cu24     1.0000 0.99952  0.50000  0.20117  Biso   1.000  Cu
  N7       1.0000 0.75550  0.74030  0.27000  Biso   1.000  N
  N8       1.0000 0.25550  0.24030  0.77000  Biso   1.000  N
  N9       1.0000 0.24450  0.74030  0.73000  Biso   1.000  N
  N10      1.0000 0.74450  0.24030  0.23000  Biso   1.000  N
  N11      1.0000 0.24450  0.25970  0.73000  Biso   1.000  N
  N12      1.0000 0.74450  0.75970  0.23000  Biso   1.000  N
  N13      1.0000 0.75550  0.25970  0.27000  Biso   1.000  N
  N14      1.0000 0.25550  0.75970  0.77000  Biso   1.000  N
  N15      1.0000 0.27120  0.76820  0.25600  Biso   1.000  N
  N16      1.0000 0.77120  0.26820  0.75600  Biso   1.000  N
  N17      1.0000 0.72880  0.76820  0.74400  Biso   1.000  N
  N18      1.0000 0.22880  0.26820  0.24400  Biso   1.000  N
  N19      1.0000 0.72880  0.23180  0.74400  Biso   1.000  N
  N20      1.0000 0.22880  0.73180  0.24400  Biso   1.000  N
  N21      1.0000 0.27120  0.23180  0.25600  Biso   1.000  N
  N22      1.0000 0.77120  0.73180  0.75600  Biso   1.000  N
  O17      1.0000 0.76630  0.73060  0.43534  Biso   1.000  O
  O18      1.0000 0.26630  0.23060  0.93534  Biso   1.000  O
  O19      1.0000 0.23370  0.73060  0.56466  Biso   1.000  O
  O20      1.0000 0.73370  0.23060  0.06466  Biso   1.000  O
  O21      1.0000 0.23370  0.26940  0.56466  Biso   1.000  O
  O22      1.0000 0.73370  0.76940  0.06466  Biso   1.000  O
  O23      1.0000 0.76630  0.26940  0.43534  Biso   1.000  O
  O24      1.0000 0.26630  0.76940  0.93534  Biso   1.000  O
  O25      1.0000 0.68790  0.78980  0.44630  Biso   1.000  O
  O26      1.0000 0.18790  0.28980  0.94630  Biso   1.000  O
  O27      1.0000 0.31210  0.78980  0.55370  Biso   1.000  O
  O28      1.0000 0.81210  0.28980  0.05370  Biso   1.000  O
  O29      1.0000 0.31210  0.21020  0.55370  Biso   1.000  O
  O30      1.0000 0.81210  0.71020  0.05370  Biso   1.000  O
  O31      1.0000 0.68790  0.21020  0.44630  Biso   1.000  O
  O32      1.0000 0.18790  0.71020  0.94630  Biso   1.000  O
  O33      1.0000 0.33710  0.69130  0.00850  Biso   1.000  O
  O34      1.0000 0.83710  0.19130  0.50850  Biso   1.000  O
  O35      1.0000 0.66290  0.69130  0.99150  Biso   1.000  O
  O36      1.0000 0.16290  0.19130  0.49150  Biso   1.000  O
  O37      1.0000 0.66290  0.30870  0.99150  Biso   1.000  O
  O38      1.0000 0.16290  0.80870  0.49150  Biso   1.000  O
  O39      1.0000 0.33710  0.30870  0.00850  Biso   1.000  O
  O40      1.0000 0.83710  0.80870  0.50850  Biso   1.000  O
  O41      1.0000 0.25790  0.63500  0.02288  Biso   1.000  O
  O42      1.0000 0.75790  0.13500  0.52288  Biso   1.000  O
  O43      1.0000 0.74210  0.63500  0.97712  Biso   1.000  O
  O44      1.0000 0.24210  0.13500  0.47712  Biso   1.000  O
  O45      1.0000 0.74210  0.36500  0.97712  Biso   1.000  O
  O46      1.0000 0.24210  0.86500  0.47712  Biso   1.000  O
  O47      1.0000 0.25790  0.36500  0.02288  Biso   1.000  O
  O48      1.0000 0.75790  0.86500  0.52288  Biso   1.000  O
  O49      1.0000 0.32620  0.80970  0.06887  Biso   1.000  O
  O50      1.0000 0.82620  0.30970  0.56887  Biso   1.000  O
  O51      1.0000 0.67380  0.80970  0.93113  Biso   1.000  O
  O52      1.0000 0.17380  0.30970  0.43113  Biso   1.000  O
  O53      1.0000 0.67380  0.19030  0.93113  Biso   1.000  O
  O54      1.0000 0.17380  0.69030  0.43113  Biso   1.000  O
  O55      1.0000 0.32620  0.19030  0.06887  Biso   1.000  O
  O56      1.0000 0.82620  0.69030  0.56887  Biso   1.000  O
  O57      1.0000 0.24560  0.74880  0.08060  Biso   1.000  O
  O58      1.0000 0.74560  0.24880  0.58060  Biso   1.000  O
  O59      1.0000 0.75440  0.74880  0.91940  Biso   1.000  O
  O60      1.0000 0.25440  0.24880  0.41940  Biso   1.000  O
  O61      1.0000 0.75440  0.25120  0.91940  Biso   1.000  O
  O62      1.0000 0.25440  0.75120  0.41940  Biso   1.000  O
  O63      1.0000 0.24560  0.25120  0.08060  Biso   1.000  O
  O64      1.0000 0.74560  0.75120  0.58060  Biso   1.000  O
  O65      1.0000 0.25150  0.87580  0.99879  Biso   1.000  O
  O66      1.0000 0.75150  0.37580  0.49879  Biso   1.000  O
  O67      1.0000 0.74850  0.87580  0.00121  Biso   1.000  O
  O68      1.0000 0.24850  0.37580  0.50121  Biso   1.000  O
  O69      1.0000 0.74850  0.12420  0.00121  Biso   1.000  O
  O70      1.0000 0.24850  0.62420  0.50121  Biso   1.000  O
  O71      1.0000 0.25150  0.12420  0.99879  Biso   1.000  O
  O72      1.0000 0.75150  0.62420  0.49879  Biso   1.000  O
  O73      1.0000 0.16970  0.81780  0.00720  Biso   1.000  O
  O74      1.0000 0.66970  0.31780  0.50720  Biso   1.000  O
  O75      1.0000 0.83030  0.81780  0.99280  Biso   1.000  O
  O76      1.0000 0.33030  0.31780  0.49280  Biso   1.000  O
  O77      1.0000 0.83030  0.18220  0.99280  Biso   1.000  O
  O78      1.0000 0.33030  0.68220  0.49280  Biso   1.000  O
  O79      1.0000 0.16970  0.18220  0.00720  Biso   1.000  O
  O80      1.0000 0.66970  0.68220  0.50720  Biso   1.000  O
  O81      1.0000 0.37910  0.84440  0.99050  Biso   1.000  O
  O82      1.0000 0.87910  0.34440  0.49050  Biso   1.000  O
  O83      1.0000 0.62090  0.84440  0.00950  Biso   1.000  O
  O84      1.0000 0.12090  0.34440  0.50950  Biso   1.000  O
  O85      1.0000 0.62090  0.15560  0.00950  Biso   1.000  O
  O86      1.0000 0.12090  0.65560  0.50950  Biso   1.000  O
  O87      1.0000 0.37910  0.15560  0.99050  Biso   1.000  O
  O88      1.0000 0.87910  0.65560  0.49050  Biso   1.000  O
  O89      1.0000 0.62870  0.82490  0.53070  Biso   1.000  O
  O90      1.0000 0.12870  0.32490  0.03070  Biso   1.000  O
  O91      1.0000 0.37130  0.82490  0.46930  Biso   1.000  O
  O92      1.0000 0.87130  0.32490  0.96930  Biso   1.000  O
  O93      1.0000 0.37130  0.17510  0.46930  Biso   1.000  O
  O94      1.0000 0.87130  0.67510  0.96930  Biso   1.000  O
  O95      1.0000 0.62870  0.17510  0.53070  Biso   1.000  O
  O96      1.0000 0.12870  0.67510  0.03070  Biso   1.000  O
  O97      1.0000 0.56290  0.92350  0.31705  Biso   1.000  O
  O98      1.0000 0.06290  0.42350  0.81705  Biso   1.000  O
  O99      1.0000 0.43710  0.92350  0.68295  Biso   1.000  O
  O100     1.0000 0.93710  0.42350  0.18295  Biso   1.000  O
  O101     1.0000 0.43710  0.07650  0.68295  Biso   1.000  O
  O102     1.0000 0.93710  0.57650  0.18295  Biso   1.000  O
  O103     1.0000 0.56290  0.07650  0.31705  Biso   1.000  O
  O104     1.0000 0.06290  0.57650  0.81705  Biso   1.000  O
  O105     1.0000 0.46340  0.92900  0.19940  Biso   1.000  O
  O106     1.0000 0.96340  0.42900  0.69940  Biso   1.000  O
  O107     1.0000 0.53660  0.92900  0.80060  Biso   1.000  O
  O108     1.0000 0.03660  0.42900  0.30060  Biso   1.000  O
  O109     1.0000 0.53660  0.07100  0.80060  Biso   1.000  O
  O110     1.0000 0.03660  0.57100  0.30060  Biso   1.000  O
  O111     1.0000 0.46340  0.07100  0.19940  Biso   1.000  O
  O112     1.0000 0.96340  0.57100  0.69940  Biso   1.000  O
  O113     1.0000 0.55330  0.00000  0.15330  Biso   1.000  O
  O114     1.0000 0.05330  0.50000  0.65330  Biso   1.000  O
  O115     1.0000 0.44670  0.00000  0.84670  Biso   1.000  O
  O116     1.0000 0.94670  0.50000  0.34670  Biso   1.000  O
  O117     1.0000 0.47720  0.00000  0.36360  Biso   1.000  O
  O118     1.0000 0.97720  0.50000  0.86360  Biso   1.000  O
  O119     1.0000 0.52280  0.00000  0.63640  Biso   1.000  O
  O120     1.0000 0.02280  0.50000  0.13640  Biso   1.000  O
