data_image0
_cell_length_a       10.0124
_cell_length_b       14.1908
_cell_length_c       21.6482
_cell_angle_alpha    90
_cell_angle_beta     102.265
_cell_angle_gamma    90

_symmetry_space_group_name_H-M    "P 1"
_symmetry_int_tables_number       1

loop_
  _symmetry_equiv_pos_as_xyz
  'x, y, z'

loop_
  _atom_site_label
  _atom_site_occupancy
  _atom_site_fract_x
  _atom_site_fract_y
  _atom_site_fract_z
  _atom_site_thermal_displace_type
  _atom_site_B_iso_or_equiv
  _atom_site_type_symbol
  Cu1      1.0000 0.93748  0.33362  0.05985  Biso   1.000  Cu
  Cu2      1.0000 0.06252  0.33362  0.44015  Biso   1.000  Cu
  Cu3      1.0000 0.06252  0.66638  0.94015  Biso   1.000  Cu
  Cu4      1.0000 0.93748  0.66638  0.55985  Biso   1.000  Cu
  Cu5      1.0000 0.12532  0.50551  0.05193  Biso   1.000  Cu
  Cu6      1.0000 0.87468  0.50551  0.44807  Biso   1.000  Cu
  Cu7      1.0000 0.87468  0.49449  0.94807  Biso   1.000  Cu
  Cu8      1.0000 0.12532  0.49449  0.55193  Biso   1.000  Cu
  O1       1.0000 0.01230  0.41120  0.00035  Biso   1.000  O
  O2       1.0000 0.98770  0.41120  0.49965  Biso   1.000  O
  O3       1.0000 0.98770  0.58880  0.99965  Biso   1.000  O
  O4       1.0000 0.01230  0.58880  0.50035  Biso   1.000  O
  H1       1.0000 0.06340  0.37400  0.97500  Biso   1.000  H
  H2       1.0000 0.93660  0.37400  0.52500  Biso   1.000  H
  H3       1.0000 0.93660  0.62600  0.02500  Biso   1.000  H
  H4       1.0000 0.06340  0.62600  0.47500  Biso   1.000  H
  O5       1.0000 0.64160  0.09781  0.22533  Biso   1.000  O
  O6       1.0000 0.35840  0.09781  0.27467  Biso   1.000  O
  O7       1.0000 0.35840  0.90219  0.77467  Biso   1.000  O
  O8       1.0000 0.64160  0.90219  0.72533  Biso   1.000  O
  O9       1.0000 0.42130  0.85206  0.17632  Biso   1.000  O
  O10      1.0000 0.57870  0.85206  0.32368  Biso   1.000  O
  O11      1.0000 0.57870  0.14794  0.82368  Biso   1.000  O
  O12      1.0000 0.42130  0.14794  0.67632  Biso   1.000  O
  O13      1.0000 0.26500  0.42033  0.09353  Biso   1.000  O
  O14      1.0000 0.73500  0.42033  0.40647  Biso   1.000  O
  O15      1.0000 0.73500  0.57967  0.90647  Biso   1.000  O
  O16      1.0000 0.26500  0.57967  0.59353  Biso   1.000  O
  C1       1.0000 0.17140  0.66320  0.14290  Biso   1.000  C
  C2       1.0000 0.82860  0.66320  0.35710  Biso   1.000  C
  C3       1.0000 0.82860  0.33680  0.85710  Biso   1.000  C
  C4       1.0000 0.17140  0.33680  0.64290  Biso   1.000  C
  H5       1.0000 0.09160  0.64260  0.15420  Biso   1.000  H
  H6       1.0000 0.90840  0.64260  0.34580  Biso   1.000  H
  H7       1.0000 0.90840  0.35740  0.84580  Biso   1.000  H
  H8       1.0000 0.09160  0.35740  0.65420  Biso   1.000  H
  O17      1.0000 0.92040  0.22412  0.00352  Biso   1.000  O
  O18      1.0000 0.07960  0.22412  0.49648  Biso   1.000  O
  O19      1.0000 0.07960  0.77588  0.99648  Biso   1.000  O
  O20      1.0000 0.92040  0.77588  0.50352  Biso   1.000  O
  C5       1.0000 0.69730  0.15100  0.18527  Biso   1.000  C
  C6       1.0000 0.30270  0.15100  0.31473  Biso   1.000  C
  C7       1.0000 0.30270  0.84900  0.81473  Biso   1.000  C
  C8       1.0000 0.69730  0.84900  0.68527  Biso   1.000  C
  N1       1.0000 0.22040  0.61280  0.10113  Biso   1.000  N
  N2       1.0000 0.77960  0.61280  0.39887  Biso   1.000  N
  N3       1.0000 0.77960  0.38720  0.89887  Biso   1.000  N
  N4       1.0000 0.22040  0.38720  0.60113  Biso   1.000  N
  O21      1.0000 0.92690  0.45280  0.11050  Biso   1.000  O
  O22      1.0000 0.07310  0.45280  0.38950  Biso   1.000  O
  O23      1.0000 0.07310  0.54720  0.88950  Biso   1.000  O
  O24      1.0000 0.92690  0.54720  0.61050  Biso   1.000  O
  N5       1.0000 0.83120  0.26180  0.11207  Biso   1.000  N
  N6       1.0000 0.16880  0.26180  0.38793  Biso   1.000  N
  N7       1.0000 0.16880  0.73820  0.88793  Biso   1.000  N
  N8       1.0000 0.83120  0.73820  0.61207  Biso   1.000  N
  C9       1.0000 0.53520  0.03350  0.19729  Biso   1.000  C
  C10      1.0000 0.46480  0.03350  0.30271  Biso   1.000  C
  C11      1.0000 0.46480  0.96650  0.80271  Biso   1.000  C
  C12      1.0000 0.53520  0.96650  0.69729  Biso   1.000  C
  H9       1.0000 0.56600  0.99370  0.16670  Biso   1.000  H
  H10      1.0000 0.43400  0.99370  0.33330  Biso   1.000  H
  H11      1.0000 0.43400  0.00630  0.83330  Biso   1.000  H
  H12      1.0000 0.56600  0.00630  0.66670  Biso   1.000  H
  H13      1.0000 0.45520  0.06810  0.17580  Biso   1.000  H
  H14      1.0000 0.54480  0.06810  0.32420  Biso   1.000  H
  H15      1.0000 0.54480  0.93190  0.82420  Biso   1.000  H
  H16      1.0000 0.45520  0.93190  0.67580  Biso   1.000  H
  C13      1.0000 0.50000  0.97350  0.25000  Biso   1.000  C
  C14      1.0000 0.50000  0.02650  0.75000  Biso   1.000  C
  C15      1.0000 0.66070  0.14770  0.12044  Biso   1.000  C
  C16      1.0000 0.33930  0.14770  0.37956  Biso   1.000  C
  C17      1.0000 0.33930  0.85230  0.87956  Biso   1.000  C
  C18      1.0000 0.66070  0.85230  0.62044  Biso   1.000  C
  H17      1.0000 0.58980  0.10890  0.10030  Biso   1.000  H
  H18      1.0000 0.41020  0.10890  0.39970  Biso   1.000  H
  H19      1.0000 0.41020  0.89110  0.89970  Biso   1.000  H
  H20      1.0000 0.58980  0.89110  0.60030  Biso   1.000  H
  C19      1.0000 0.37750  0.91090  0.22170  Biso   1.000  C
  C20      1.0000 0.62250  0.91090  0.27830  Biso   1.000  C
  C21      1.0000 0.62250  0.08910  0.77830  Biso   1.000  C
  C22      1.0000 0.37750  0.08910  0.72170  Biso   1.000  C
  H21      1.0000 0.35080  0.87310  0.25440  Biso   1.000  H
  H22      1.0000 0.64920  0.87310  0.24560  Biso   1.000  H
  H23      1.0000 0.64920  0.12690  0.74560  Biso   1.000  H
  H24      1.0000 0.35080  0.12690  0.75440  Biso   1.000  H
  H25      1.0000 0.30010  0.94920  0.20160  Biso   1.000  H
  H26      1.0000 0.69990  0.94920  0.29840  Biso   1.000  H
  H27      1.0000 0.69990  0.05080  0.79840  Biso   1.000  H
  H28      1.0000 0.30010  0.05080  0.70160  Biso   1.000  H
  O25      1.0000 0.13830  0.30710  0.12414  Biso   1.000  O
  O26      1.0000 0.86170  0.30710  0.37586  Biso   1.000  O
  O27      1.0000 0.86170  0.69290  0.87586  Biso   1.000  O
  O28      1.0000 0.13830  0.69290  0.62414  Biso   1.000  O
  C23      1.0000 0.23160  0.74390  0.17052  Biso   1.000  C
  C24      1.0000 0.76840  0.74390  0.32948  Biso   1.000  C
  C25      1.0000 0.76840  0.25610  0.82948  Biso   1.000  C
  C26      1.0000 0.23160  0.25610  0.67052  Biso   1.000  C
  H29      1.0000 0.19310  0.77740  0.19930  Biso   1.000  H
  H30      1.0000 0.80690  0.77740  0.30070  Biso   1.000  H
  H31      1.0000 0.80690  0.22260  0.80070  Biso   1.000  H
  H32      1.0000 0.19310  0.22260  0.69930  Biso   1.000  H
  C27      1.0000 0.24890  0.34400  0.12265  Biso   1.000  C
  C28      1.0000 0.75110  0.34400  0.37735  Biso   1.000  C
  C29      1.0000 0.75110  0.65600  0.87735  Biso   1.000  C
  C30      1.0000 0.24890  0.65600  0.62265  Biso   1.000  C
  O29      1.0000 0.09270  0.25190  0.95590  Biso   1.000  O
  O30      1.0000 0.90730  0.25190  0.54410  Biso   1.000  O
  O31      1.0000 0.90730  0.74810  0.04410  Biso   1.000  O
  O32      1.0000 0.09270  0.74810  0.45590  Biso   1.000  O
  C31      1.0000 0.99600  0.20100  0.96660  Biso   1.000  C
  C32      1.0000 0.00400  0.20100  0.53340  Biso   1.000  C
  C33      1.0000 0.00400  0.79900  0.03340  Biso   1.000  C
  C34      1.0000 0.99600  0.79900  0.46660  Biso   1.000  C
  C35      1.0000 0.86300  0.26660  0.17508  Biso   1.000  C
  C36      1.0000 0.13700  0.26660  0.32492  Biso   1.000  C
  C37      1.0000 0.13700  0.73340  0.82492  Biso   1.000  C
  C38      1.0000 0.86300  0.73340  0.67508  Biso   1.000  C
  H33      1.0000 0.93110  0.30830  0.19400  Biso   1.000  H
  H34      1.0000 0.06890  0.30830  0.30600  Biso   1.000  H
  H35      1.0000 0.06890  0.69170  0.80600  Biso   1.000  H
  H36      1.0000 0.93110  0.69170  0.69400  Biso   1.000  H
  C39      1.0000 0.79990  0.21290  0.21329  Biso   1.000  C
  C40      1.0000 0.20010  0.21290  0.28671  Biso   1.000  C
  C41      1.0000 0.20010  0.78710  0.78671  Biso   1.000  C
  C42      1.0000 0.79990  0.78710  0.71329  Biso   1.000  C
  H37      1.0000 0.82530  0.21790  0.25710  Biso   1.000  H
  H38      1.0000 0.17470  0.21790  0.24290  Biso   1.000  H
  H39      1.0000 0.17470  0.78210  0.74290  Biso   1.000  H
  H40      1.0000 0.82530  0.78210  0.75710  Biso   1.000  H
  C43      1.0000 0.35010  0.77430  0.15463  Biso   1.000  C
  C44      1.0000 0.64990  0.77430  0.34537  Biso   1.000  C
  C45      1.0000 0.64990  0.22570  0.84537  Biso   1.000  C
  C46      1.0000 0.35010  0.22570  0.65463  Biso   1.000  C
  O33      1.0000 0.74250  0.47420  0.03829  Biso   1.000  O
  O34      1.0000 0.25750  0.47420  0.46171  Biso   1.000  O
  O35      1.0000 0.25750  0.52580  0.96171  Biso   1.000  O
  O36      1.0000 0.74250  0.52580  0.53829  Biso   1.000  O
  C47      1.0000 0.73040  0.20250  0.08609  Biso   1.000  C
  C48      1.0000 0.26960  0.20250  0.41391  Biso   1.000  C
  C49      1.0000 0.26960  0.79750  0.91391  Biso   1.000  C
  C50      1.0000 0.73040  0.79750  0.58609  Biso   1.000  C
  H41      1.0000 0.70670  0.19850  0.04220  Biso   1.000  H
  H42      1.0000 0.29330  0.19850  0.45780  Biso   1.000  H
  H43      1.0000 0.29330  0.80150  0.95780  Biso   1.000  H
  H44      1.0000 0.70670  0.80150  0.54220  Biso   1.000  H
  C51      1.0000 0.40560  0.72070  0.11240  Biso   1.000  C
  C52      1.0000 0.59440  0.72070  0.38760  Biso   1.000  C
  C53      1.0000 0.59440  0.27930  0.88760  Biso   1.000  C
  C54      1.0000 0.40560  0.27930  0.61240  Biso   1.000  C
  H45      1.0000 0.48670  0.73860  0.10120  Biso   1.000  H
  H46      1.0000 0.51330  0.73860  0.39880  Biso   1.000  H
  H47      1.0000 0.51330  0.26140  0.89880  Biso   1.000  H
  H48      1.0000 0.48670  0.26140  0.60120  Biso   1.000  H
  C55      1.0000 0.83840  0.96330  0.91910  Biso   1.000  C
  C56      1.0000 0.16160  0.96330  0.58090  Biso   1.000  C
  C57      1.0000 0.16160  0.03670  0.08090  Biso   1.000  C
  C58      1.0000 0.83840  0.03670  0.41910  Biso   1.000  C
  H49      1.0000 0.77050  0.92510  0.92900  Biso   1.000  H
  H50      1.0000 0.22950  0.92510  0.57100  Biso   1.000  H
  H51      1.0000 0.22950  0.07490  0.07100  Biso   1.000  H
  H52      1.0000 0.77050  0.07490  0.42900  Biso   1.000  H
  C59      1.0000 0.96530  0.10760  0.93380  Biso   1.000  C
  C60      1.0000 0.03470  0.10760  0.56620  Biso   1.000  C
  C61      1.0000 0.03470  0.89240  0.06620  Biso   1.000  C
  C62      1.0000 0.96530  0.89240  0.43380  Biso   1.000  C
  C63      1.0000 0.33820  0.64110  0.08770  Biso   1.000  C
  C64      1.0000 0.66180  0.64110  0.41230  Biso   1.000  C
  C65      1.0000 0.66180  0.35890  0.91230  Biso   1.000  C
  C66      1.0000 0.33820  0.35890  0.58770  Biso   1.000  C
  H53      1.0000 0.37630  0.60480  0.06020  Biso   1.000  H
  H54      1.0000 0.62370  0.60480  0.43980  Biso   1.000  H
  H55      1.0000 0.62370  0.39520  0.93980  Biso   1.000  H
  H56      1.0000 0.37630  0.39520  0.56020  Biso   1.000  H
  C67      1.0000 0.81400  0.49110  0.09130  Biso   1.000  C
  C68      1.0000 0.18600  0.49110  0.40870  Biso   1.000  C
  C69      1.0000 0.18600  0.50890  0.90870  Biso   1.000  C
  C70      1.0000 0.81400  0.50890  0.59130  Biso   1.000  C
  C71      1.0000 0.86620  0.04940  0.94750  Biso   1.000  C
  C72      1.0000 0.13380  0.04940  0.55250  Biso   1.000  C
  C73      1.0000 0.13380  0.95060  0.05250  Biso   1.000  C
  C74      1.0000 0.86620  0.95060  0.44750  Biso   1.000  C
  H57      1.0000 0.81640  0.06890  0.97700  Biso   1.000  H
  H58      1.0000 0.18360  0.06890  0.52300  Biso   1.000  H
  H59      1.0000 0.18360  0.93110  0.02300  Biso   1.000  H
  H60      1.0000 0.81640  0.93110  0.47700  Biso   1.000  H
  C75      1.0000 0.03840  0.08050  0.88960  Biso   1.000  C
  C76      1.0000 0.96160  0.08050  0.61040  Biso   1.000  C
  C77      1.0000 0.96160  0.91950  0.11040  Biso   1.000  C
  C78      1.0000 0.03840  0.91950  0.38960  Biso   1.000  C
  H61      1.0000 0.10520  0.11950  0.87940  Biso   1.000  H
  H62      1.0000 0.89480  0.11950  0.62060  Biso   1.000  H
  H63      1.0000 0.89480  0.88050  0.12060  Biso   1.000  H
  H64      1.0000 0.10520  0.88050  0.37940  Biso   1.000  H
  C79      1.0000 0.37790  0.29760  0.15720  Biso   1.000  C
  C80      1.0000 0.62210  0.29760  0.34280  Biso   1.000  C
  C81      1.0000 0.62210  0.70240  0.84280  Biso   1.000  C
  C82      1.0000 0.37790  0.70240  0.65720  Biso   1.000  C
  H65      1.0000 0.35570  0.24110  0.17710  Biso   1.000  H
  H66      1.0000 0.64430  0.24110  0.32290  Biso   1.000  H
  H67      1.0000 0.64430  0.75890  0.82290  Biso   1.000  H
  H68      1.0000 0.35570  0.75890  0.67710  Biso   1.000  H
  H69      1.0000 0.42660  0.33990  0.18870  Biso   1.000  H
  H70      1.0000 0.57340  0.33990  0.31130  Biso   1.000  H
  H71      1.0000 0.57340  0.66010  0.81130  Biso   1.000  H
  H72      1.0000 0.42660  0.66010  0.68870  Biso   1.000  H
  H73      1.0000 0.43410  0.28230  0.12780  Biso   1.000  H
  H74      1.0000 0.56590  0.28230  0.37220  Biso   1.000  H
  H75      1.0000 0.56590  0.71770  0.87220  Biso   1.000  H
  H76      1.0000 0.43410  0.71770  0.62780  Biso   1.000  H
  C83      1.0000 0.90960  0.93510  0.87720  Biso   1.000  C
  C84      1.0000 0.09040  0.93510  0.62280  Biso   1.000  C
  C85      1.0000 0.09040  0.06490  0.12280  Biso   1.000  C
  C86      1.0000 0.90960  0.06490  0.37720  Biso   1.000  C
  H77      1.0000 0.89230  0.87590  0.85900  Biso   1.000  H
  H78      1.0000 0.10770  0.87590  0.64100  Biso   1.000  H
  H79      1.0000 0.10770  0.12410  0.14100  Biso   1.000  H
  H80      1.0000 0.89230  0.12410  0.35900  Biso   1.000  H
  C87      1.0000 0.00920  0.99130  0.85980  Biso   1.000  C
  C88      1.0000 0.99080  0.99130  0.64020  Biso   1.000  C
  C89      1.0000 0.99080  0.00870  0.14020  Biso   1.000  C
  C90      1.0000 0.00920  0.00870  0.35980  Biso   1.000  C
  H81      1.0000 0.05570  0.97110  0.82930  Biso   1.000  H
  H82      1.0000 0.94430  0.97110  0.67070  Biso   1.000  H
  H83      1.0000 0.94430  0.02890  0.17070  Biso   1.000  H
  H84      1.0000 0.05570  0.02890  0.32930  Biso   1.000  H
  C91      1.0000 0.75810  0.56490  0.12930  Biso   1.000  C
  C92      1.0000 0.24190  0.56490  0.37070  Biso   1.000  C
  C93      1.0000 0.24190  0.43510  0.87070  Biso   1.000  C
  C94      1.0000 0.75810  0.43510  0.62930  Biso   1.000  C
  H85      1.0000 0.82040  0.57350  0.16920  Biso   1.000  H
  H86      1.0000 0.17960  0.57350  0.33080  Biso   1.000  H
  H87      1.0000 0.17960  0.42650  0.83080  Biso   1.000  H
  H88      1.0000 0.82040  0.42650  0.66920  Biso   1.000  H
  H89      1.0000 0.67100  0.54480  0.13630  Biso   1.000  H
  H90      1.0000 0.32900  0.54480  0.36370  Biso   1.000  H
  H91      1.0000 0.32900  0.45520  0.86370  Biso   1.000  H
  H92      1.0000 0.67100  0.45520  0.63630  Biso   1.000  H
  H93      1.0000 0.74740  0.62340  0.10650  Biso   1.000  H
  H94      1.0000 0.25260  0.62340  0.39350  Biso   1.000  H
  H95      1.0000 0.25260  0.37660  0.89350  Biso   1.000  H
  H96      1.0000 0.74740  0.37660  0.60650  Biso   1.000  H
  O37      1.0000 0.51280  0.62180  0.97370  Biso   1.000  O
  O38      1.0000 0.48720  0.62180  0.52630  Biso   1.000  O
  O39      1.0000 0.48720  0.37820  0.02630  Biso   1.000  O
  O40      1.0000 0.51280  0.37820  0.47370  Biso   1.000  O
  H97      1.0000 0.60690  0.62160  0.99700  Biso   1.000  H
  H98      1.0000 0.39310  0.62160  0.50300  Biso   1.000  H
  H99      1.0000 0.39310  0.37840  0.00300  Biso   1.000  H
  H100     1.0000 0.60690  0.37840  0.49700  Biso   1.000  H
  H101     1.0000 0.46430  0.67740  0.98300  Biso   1.000  H
  H102     1.0000 0.53570  0.67740  0.51700  Biso   1.000  H
  H103     1.0000 0.53570  0.32260  0.01700  Biso   1.000  H
  H104     1.0000 0.46430  0.32260  0.48300  Biso   1.000  H
  O41      1.0000 0.62620  0.79490  0.01160  Biso   1.000  O
  O42      1.0000 0.37380  0.79490  0.48840  Biso   1.000  O
  O43      1.0000 0.37380  0.20510  0.98840  Biso   1.000  O
  O44      1.0000 0.62620  0.20510  0.51160  Biso   1.000  O
  H105     1.0000 0.72030  0.79520  0.03490  Biso   1.000  H
  H106     1.0000 0.27970  0.79520  0.46510  Biso   1.000  H
  H107     1.0000 0.27970  0.20480  0.96510  Biso   1.000  H
  H108     1.0000 0.72030  0.20480  0.53490  Biso   1.000  H
  H109     1.0000 0.57530  0.84950  0.02060  Biso   1.000  H
  H110     1.0000 0.42470  0.84950  0.47940  Biso   1.000  H
  H111     1.0000 0.42470  0.15050  0.97940  Biso   1.000  H
  H112     1.0000 0.57530  0.15050  0.52060  Biso   1.000  H
  O45      1.0000 0.49730  0.94820  0.04290  Biso   1.000  O
  O46      1.0000 0.50270  0.94820  0.45710  Biso   1.000  O
  O47      1.0000 0.50270  0.05180  0.95710  Biso   1.000  O
  O48      1.0000 0.49730  0.05180  0.54290  Biso   1.000  O
  H113     1.0000 0.59020  0.95730  0.06650  Biso   1.000  H
  H114     1.0000 0.40980  0.95730  0.43350  Biso   1.000  H
  H115     1.0000 0.40980  0.04270  0.93350  Biso   1.000  H
  H116     1.0000 0.59020  0.04270  0.56650  Biso   1.000  H
  H117     1.0000 0.43440  0.99620  0.05110  Biso   1.000  H
  H118     1.0000 0.56560  0.99620  0.44890  Biso   1.000  H
  H119     1.0000 0.56560  0.00380  0.94890  Biso   1.000  H
  H120     1.0000 0.43440  0.00380  0.55110  Biso   1.000  H
