data_image0
_cell_length_a       5.5067
_cell_length_b       10.5119
_cell_length_c       28.1794
_cell_angle_alpha    90
_cell_angle_beta     90
_cell_angle_gamma    90

_symmetry_space_group_name_H-M    "P 1"
_symmetry_int_tables_number       1

loop_
  _symmetry_equiv_pos_as_xyz
  'x, y, z'

loop_
  _atom_site_label
  _atom_site_occupancy
  _atom_site_fract_x
  _atom_site_fract_y
  _atom_site_fract_z
  _atom_site_thermal_displace_type
  _atom_site_B_iso_or_equiv
  _atom_site_type_symbol
  Cu1      1.0000 0.76643  0.51906  0.24051  Biso   1.000  Cu
  Cu2      1.0000 0.73357  0.48094  0.74051  Biso   1.000  Cu
  Cu3      1.0000 0.23357  0.01906  0.25949  Biso   1.000  Cu
  Cu4      1.0000 0.26643  0.98094  0.75949  Biso   1.000  Cu
  S1       1.0000 0.33983  0.71037  0.21255  Biso   1.000  S
  S2       1.0000 0.16017  0.28963  0.71255  Biso   1.000  S
  S3       1.0000 0.66017  0.21037  0.28745  Biso   1.000  S
  S4       1.0000 0.83983  0.78963  0.78745  Biso   1.000  S
  C1       1.0000 0.51910  0.40560  0.16075  Biso   1.000  C
  C2       1.0000 0.98090  0.59440  0.66075  Biso   1.000  C
  C3       1.0000 0.48090  0.90560  0.33925  Biso   1.000  C
  C4       1.0000 0.01910  0.09440  0.83925  Biso   1.000  C
  H1       1.0000 0.42180  0.37480  0.18520  Biso   1.000  H
  H2       1.0000 0.07820  0.62520  0.68520  Biso   1.000  H
  H3       1.0000 0.57820  0.87480  0.31480  Biso   1.000  H
  H4       1.0000 0.92180  0.12520  0.81480  Biso   1.000  H
  C5       1.0000 0.44850  0.38390  0.11476  Biso   1.000  C
  C6       1.0000 0.05150  0.61610  0.61476  Biso   1.000  C
  C7       1.0000 0.55150  0.88390  0.38524  Biso   1.000  C
  C8       1.0000 0.94850  0.11610  0.88524  Biso   1.000  C
  H5       1.0000 0.30540  0.34020  0.10830  Biso   1.000  H
  H6       1.0000 0.19460  0.65980  0.60830  Biso   1.000  H
  H7       1.0000 0.69460  0.84020  0.39170  Biso   1.000  H
  H8       1.0000 0.80540  0.15980  0.89170  Biso   1.000  H
  C9       1.0000 0.59340  0.42780  0.07792  Biso   1.000  C
  C10      1.0000 0.90660  0.57220  0.57792  Biso   1.000  C
  C11      1.0000 0.40660  0.92780  0.42208  Biso   1.000  C
  C12      1.0000 0.09340  0.07220  0.92208  Biso   1.000  C
  C13      1.0000 0.80750  0.48900  0.08931  Biso   1.000  C
  C14      1.0000 0.69250  0.51100  0.58931  Biso   1.000  C
  C15      1.0000 0.19250  0.98900  0.41069  Biso   1.000  C
  C16      1.0000 0.30750  0.01100  0.91069  Biso   1.000  C
  H9       1.0000 0.91200  0.51640  0.06550  Biso   1.000  H
  H10      1.0000 0.58800  0.48360  0.56550  Biso   1.000  H
  H11      1.0000 0.08800  0.01640  0.43450  Biso   1.000  H
  H12      1.0000 0.41200  0.98360  0.93450  Biso   1.000  H
  C17      1.0000 0.86480  0.50910  0.13628  Biso   1.000  C
  C18      1.0000 0.63520  0.49090  0.63628  Biso   1.000  C
  C19      1.0000 0.13520  0.00910  0.36372  Biso   1.000  C
  C20      1.0000 0.36480  0.99090  0.86372  Biso   1.000  C
  H13      1.0000 0.00790  0.55180  0.14360  Biso   1.000  H
  H14      1.0000 0.49210  0.44820  0.64360  Biso   1.000  H
  H15      1.0000 0.99210  0.05180  0.35640  Biso   1.000  H
  H16      1.0000 0.50790  0.94820  0.85640  Biso   1.000  H
  C21      1.0000 0.50810  0.40400  0.02965  Biso   1.000  C
  C22      1.0000 0.99190  0.59600  0.52965  Biso   1.000  C
  C23      1.0000 0.49190  0.90400  0.47035  Biso   1.000  C
  C24      1.0000 0.00810  0.09600  0.97035  Biso   1.000  C
  C25      1.0000 0.50660  0.39420  0.95518  Biso   1.000  C
  C26      1.0000 0.99340  0.60580  0.45518  Biso   1.000  C
  C27      1.0000 0.49340  0.89420  0.54482  Biso   1.000  C
  C28      1.0000 0.00660  0.10580  0.04482  Biso   1.000  C
  C29      1.0000 0.49030  0.37190  0.82444  Biso   1.000  C
  C30      1.0000 0.00970  0.62810  0.32444  Biso   1.000  C
  C31      1.0000 0.50970  0.87190  0.67556  Biso   1.000  C
  C32      1.0000 0.99030  0.12810  0.17556  Biso   1.000  C
  H17      1.0000 0.38550  0.33900  0.80160  Biso   1.000  H
  H18      1.0000 0.11450  0.66100  0.30160  Biso   1.000  H
  H19      1.0000 0.61450  0.83900  0.69840  Biso   1.000  H
  H20      1.0000 0.88550  0.16100  0.19840  Biso   1.000  H
  C33      1.0000 0.43230  0.35670  0.87122  Biso   1.000  C
  C34      1.0000 0.06770  0.64330  0.37122  Biso   1.000  C
  C35      1.0000 0.56770  0.85670  0.62878  Biso   1.000  C
  C36      1.0000 0.93230  0.14330  0.12878  Biso   1.000  C
  H21      1.0000 0.29140  0.31380  0.87990  Biso   1.000  H
  H22      1.0000 0.20860  0.68620  0.37990  Biso   1.000  H
  H23      1.0000 0.70860  0.81380  0.62010  Biso   1.000  H
  H24      1.0000 0.79140  0.18620  0.12010  Biso   1.000  H
  C37      1.0000 0.58610  0.40590  0.90552  Biso   1.000  C
  C38      1.0000 0.91390  0.59410  0.40552  Biso   1.000  C
  C39      1.0000 0.41390  0.90590  0.59448  Biso   1.000  C
  C40      1.0000 0.08610  0.09410  0.09448  Biso   1.000  C
  C41      1.0000 0.79930  0.46310  0.89141  Biso   1.000  C
  C42      1.0000 0.70070  0.53690  0.39141  Biso   1.000  C
  C43      1.0000 0.20070  0.96310  0.60859  Biso   1.000  C
  C44      1.0000 0.29930  0.03690  0.10859  Biso   1.000  C
  H25      1.0000 0.90950  0.49340  0.91370  Biso   1.000  H
  H26      1.0000 0.59050  0.50660  0.41370  Biso   1.000  H
  H27      1.0000 0.09050  0.99340  0.58630  Biso   1.000  H
  H28      1.0000 0.40950  0.00660  0.08630  Biso   1.000  H
  C45      1.0000 0.84600  0.47450  0.84341  Biso   1.000  C
  C46      1.0000 0.65400  0.52550  0.34341  Biso   1.000  C
  C47      1.0000 0.15400  0.97450  0.65659  Biso   1.000  C
  C48      1.0000 0.34600  0.02550  0.15659  Biso   1.000  C
  H29      1.0000 0.98990  0.51300  0.83380  Biso   1.000  H
  H30      1.0000 0.51010  0.48700  0.33380  Biso   1.000  H
  H31      1.0000 0.01010  0.01300  0.66620  Biso   1.000  H
  H32      1.0000 0.48990  0.98700  0.16620  Biso   1.000  H
  N1       1.0000 0.72170  0.46930  0.17209  Biso   1.000  N
  N2       1.0000 0.77830  0.53070  0.67209  Biso   1.000  N
  N3       1.0000 0.27830  0.96930  0.32791  Biso   1.000  N
  N4       1.0000 0.22170  0.03070  0.82791  Biso   1.000  N
  N5       1.0000 0.30210  0.35690  0.01835  Biso   1.000  N
  N6       1.0000 0.19790  0.64310  0.51835  Biso   1.000  N
  N7       1.0000 0.69790  0.85690  0.48165  Biso   1.000  N
  N8       1.0000 0.80210  0.14310  0.98165  Biso   1.000  N
  N9       1.0000 0.30060  0.35000  0.96885  Biso   1.000  N
  N10      1.0000 0.19940  0.65000  0.46885  Biso   1.000  N
  N11      1.0000 0.69940  0.85000  0.53115  Biso   1.000  N
  N12      1.0000 0.80060  0.15000  0.03115  Biso   1.000  N
  N13      1.0000 0.69160  0.43210  0.80993  Biso   1.000  N
  N14      1.0000 0.80840  0.56790  0.30993  Biso   1.000  N
  N15      1.0000 0.30840  0.93210  0.69007  Biso   1.000  N
  N16      1.0000 0.19160  0.06790  0.19007  Biso   1.000  N
  O1       1.0000 0.65140  0.43170  0.99154  Biso   1.000  O
  O2       1.0000 0.84860  0.56830  0.49154  Biso   1.000  O
  O3       1.0000 0.34860  0.93170  0.50846  Biso   1.000  O
  O4       1.0000 0.15140  0.06830  0.00846  Biso   1.000  O
  O5       1.0000 0.07230  0.42030  0.24185  Biso   1.000  O
  O6       1.0000 0.42770  0.57970  0.74185  Biso   1.000  O
  O7       1.0000 0.92770  0.92030  0.25815  Biso   1.000  O
  O8       1.0000 0.57230  0.07970  0.75815  Biso   1.000  O
  H33      1.0000 0.21000  0.45100  0.24670  Biso   1.000  H
  H34      1.0000 0.29000  0.54900  0.74670  Biso   1.000  H
  H35      1.0000 0.79000  0.95100  0.25330  Biso   1.000  H
  H36      1.0000 0.71000  0.04900  0.75330  Biso   1.000  H
  H37      1.0000 0.06100  0.35700  0.25960  Biso   1.000  H
  H38      1.0000 0.43900  0.64300  0.75960  Biso   1.000  H
  H39      1.0000 0.93900  0.85700  0.24040  Biso   1.000  H
  H40      1.0000 0.56100  0.14300  0.74040  Biso   1.000  H
  O9       1.0000 0.44280  0.59870  0.23986  Biso   1.000  O
  O10      1.0000 0.05720  0.40130  0.73986  Biso   1.000  O
  O11      1.0000 0.55720  0.09870  0.26014  Biso   1.000  O
  O12      1.0000 0.94280  0.90130  0.76014  Biso   1.000  O
  O13      1.0000 0.42660  0.82700  0.23520  Biso   1.000  O
  O14      1.0000 0.07340  0.17300  0.73520  Biso   1.000  O
  O15      1.0000 0.57340  0.32700  0.26480  Biso   1.000  O
  O16      1.0000 0.92660  0.67300  0.76480  Biso   1.000  O
  O17      1.0000 0.07260  0.69960  0.21687  Biso   1.000  O
  O18      1.0000 0.42740  0.30040  0.71687  Biso   1.000  O
  O19      1.0000 0.92740  0.19960  0.28313  Biso   1.000  O
  O20      1.0000 0.57260  0.80040  0.78313  Biso   1.000  O
  O21      1.0000 0.41340  0.70270  0.16333  Biso   1.000  O
  O22      1.0000 0.08660  0.29730  0.66333  Biso   1.000  O
  O23      1.0000 0.58660  0.20270  0.33667  Biso   1.000  O
  O24      1.0000 0.91340  0.79730  0.83667  Biso   1.000  O
  O25      1.0000 0.81410  0.82630  0.12080  Biso   1.000  O
  O26      1.0000 0.68590  0.17370  0.62080  Biso   1.000  O
  O27      1.0000 0.18590  0.32630  0.37920  Biso   1.000  O
  O28      1.0000 0.31410  0.67370  0.87920  Biso   1.000  O
  O29      1.0000 0.83900  0.81200  0.01640  Biso   1.000  O
  O30      1.0000 0.66100  0.18800  0.51640  Biso   1.000  O
  O31      1.0000 0.16100  0.31200  0.48360  Biso   1.000  O
  O32      1.0000 0.33900  0.68800  0.98360  Biso   1.000  O
  O33      1.0000 0.65600  0.81800  0.02700  Biso   1.000  O
  O34      1.0000 0.84400  0.18200  0.52700  Biso   1.000  O
  O35      1.0000 0.34400  0.31800  0.47300  Biso   1.000  O
  O36      1.0000 0.15600  0.68200  0.97300  Biso   1.000  O
  O37      1.0000 0.71880  0.77620  0.92930  Biso   1.000  O
  O38      1.0000 0.78120  0.22380  0.42930  Biso   1.000  O
  O39      1.0000 0.28120  0.27620  0.57070  Biso   1.000  O
  O40      1.0000 0.21880  0.72380  0.07070  Biso   1.000  O
