data_image0
_cell_length_a       13.3503
_cell_length_b       13.3503
_cell_length_c       14.3853
_cell_angle_alpha    90
_cell_angle_beta     90
_cell_angle_gamma    120

_symmetry_space_group_name_H-M    "P 1"
_symmetry_int_tables_number       1

loop_
  _symmetry_equiv_pos_as_xyz
  'x, y, z'

loop_
  _atom_site_label
  _atom_site_occupancy
  _atom_site_fract_x
  _atom_site_fract_y
  _atom_site_fract_z
  _atom_site_thermal_displace_type
  _atom_site_B_iso_or_equiv
  _atom_site_type_symbol
  Dy1      1.0000 0.66670  0.33330  0.16750  Biso   1.000  Dy
  Dy2      1.0000 0.33330  0.66670  0.33250  Biso   1.000  Dy
  Dy3      1.0000 0.33330  0.66670  0.83250  Biso   1.000  Dy
  Dy4      1.0000 0.66670  0.33330  0.66750  Biso   1.000  Dy
  Cu1      1.0000 0.00000  0.50000  0.00000  Biso   1.000  Cu
  Cu2      1.0000 0.50000  0.50000  0.00000  Biso   1.000  Cu
  Cu3      1.0000 0.50000  0.00000  0.00000  Biso   1.000  Cu
  Cu4      1.0000 0.50000  0.00000  0.50000  Biso   1.000  Cu
  Cu5      1.0000 0.00000  0.50000  0.50000  Biso   1.000  Cu
  Cu6      1.0000 0.50000  0.50000  0.50000  Biso   1.000  Cu
  N1       1.0000 0.95780  0.61040  0.94180  Biso   1.000  N
  N2       1.0000 0.38960  0.34740  0.94180  Biso   1.000  N
  N3       1.0000 0.65260  0.04220  0.94180  Biso   1.000  N
  N4       1.0000 0.61040  0.95780  0.55820  Biso   1.000  N
  N5       1.0000 0.04220  0.65260  0.55820  Biso   1.000  N
  N6       1.0000 0.34740  0.38960  0.55820  Biso   1.000  N
  N7       1.0000 0.04220  0.38960  0.05820  Biso   1.000  N
  N8       1.0000 0.61040  0.65260  0.05820  Biso   1.000  N
  N9       1.0000 0.34740  0.95780  0.05820  Biso   1.000  N
  N10      1.0000 0.38960  0.04220  0.44180  Biso   1.000  N
  N11      1.0000 0.95780  0.34740  0.44180  Biso   1.000  N
  N12      1.0000 0.65260  0.61040  0.44180  Biso   1.000  N
  H1       1.0000 0.02380  0.67360  0.92160  Biso   1.000  H
  H2       1.0000 0.32640  0.35020  0.92160  Biso   1.000  H
  H3       1.0000 0.64980  0.97620  0.92160  Biso   1.000  H
  H4       1.0000 0.67360  0.02380  0.57840  Biso   1.000  H
  H5       1.0000 0.97620  0.64980  0.57840  Biso   1.000  H
  H6       1.0000 0.35020  0.32640  0.57840  Biso   1.000  H
  H7       1.0000 0.97620  0.32640  0.07840  Biso   1.000  H
  H8       1.0000 0.67360  0.64980  0.07840  Biso   1.000  H
  H9       1.0000 0.35020  0.02380  0.07840  Biso   1.000  H
  H10      1.0000 0.32640  0.97620  0.42160  Biso   1.000  H
  H11      1.0000 0.02380  0.35020  0.42160  Biso   1.000  H
  H12      1.0000 0.64980  0.67360  0.42160  Biso   1.000  H
  O1       1.0000 0.81120  0.45110  0.05950  Biso   1.000  O
  O2       1.0000 0.54890  0.36010  0.05950  Biso   1.000  O
  O3       1.0000 0.63990  0.18880  0.05950  Biso   1.000  O
  O4       1.0000 0.45110  0.81120  0.44050  Biso   1.000  O
  O5       1.0000 0.18880  0.63990  0.44050  Biso   1.000  O
  O6       1.0000 0.36010  0.54890  0.44050  Biso   1.000  O
  O7       1.0000 0.18880  0.54890  0.94050  Biso   1.000  O
  O8       1.0000 0.45110  0.63990  0.94050  Biso   1.000  O
  O9       1.0000 0.36010  0.81120  0.94050  Biso   1.000  O
  O10      1.0000 0.54890  0.18880  0.55950  Biso   1.000  O
  O11      1.0000 0.81120  0.36010  0.55950  Biso   1.000  O
  O12      1.0000 0.63990  0.45110  0.55950  Biso   1.000  O
  O13      1.0000 0.75430  0.56080  0.12800  Biso   1.000  O
  O14      1.0000 0.43920  0.19350  0.12800  Biso   1.000  O
  O15      1.0000 0.80650  0.24570  0.12800  Biso   1.000  O
  O16      1.0000 0.56080  0.75430  0.37200  Biso   1.000  O
  O17      1.0000 0.24570  0.80650  0.37200  Biso   1.000  O
  O18      1.0000 0.19350  0.43920  0.37200  Biso   1.000  O
  O19      1.0000 0.24570  0.43920  0.87200  Biso   1.000  O
  O20      1.0000 0.56080  0.80650  0.87200  Biso   1.000  O
  O21      1.0000 0.19350  0.75430  0.87200  Biso   1.000  O
  O22      1.0000 0.43920  0.24570  0.62800  Biso   1.000  O
  O23      1.0000 0.75430  0.19350  0.62800  Biso   1.000  O
  O24      1.0000 0.80650  0.56080  0.62800  Biso   1.000  O
  O25      1.0000 0.81550  0.38090  0.77050  Biso   1.000  O
  O26      1.0000 0.61910  0.43460  0.77050  Biso   1.000  O
  O27      1.0000 0.56540  0.18450  0.77050  Biso   1.000  O
  O28      1.0000 0.38090  0.81550  0.72950  Biso   1.000  O
  O29      1.0000 0.18450  0.56540  0.72950  Biso   1.000  O
  O30      1.0000 0.43460  0.61910  0.72950  Biso   1.000  O
  O31      1.0000 0.18450  0.61910  0.22950  Biso   1.000  O
  O32      1.0000 0.38090  0.56540  0.22950  Biso   1.000  O
  O33      1.0000 0.43460  0.81550  0.22950  Biso   1.000  O
  O34      1.0000 0.61910  0.18450  0.27050  Biso   1.000  O
  O35      1.0000 0.81550  0.43460  0.27050  Biso   1.000  O
  O36      1.0000 0.56540  0.38090  0.27050  Biso   1.000  O
  O37      1.0000 0.92490  0.40170  0.89180  Biso   1.000  O
  O38      1.0000 0.59830  0.52320  0.89180  Biso   1.000  O
  O39      1.0000 0.47680  0.07510  0.89180  Biso   1.000  O
  O40      1.0000 0.40170  0.92490  0.60820  Biso   1.000  O
  O41      1.0000 0.07510  0.47680  0.60820  Biso   1.000  O
  O42      1.0000 0.52320  0.59830  0.60820  Biso   1.000  O
  O43      1.0000 0.07510  0.59830  0.10820  Biso   1.000  O
  O44      1.0000 0.40170  0.47680  0.10820  Biso   1.000  O
  O45      1.0000 0.52320  0.92490  0.10820  Biso   1.000  O
  O46      1.0000 0.59830  0.07510  0.39180  Biso   1.000  O
  O47      1.0000 0.92490  0.52320  0.39180  Biso   1.000  O
  O48      1.0000 0.47680  0.40170  0.39180  Biso   1.000  O
  O49      1.0000 0.00000  0.26620  0.75000  Biso   1.000  O
  O50      1.0000 0.73380  0.73380  0.75000  Biso   1.000  O
  O51      1.0000 0.26620  0.00000  0.75000  Biso   1.000  O
  O52      1.0000 0.00000  0.73380  0.25000  Biso   1.000  O
  O53      1.0000 0.26620  0.26620  0.25000  Biso   1.000  O
  O54      1.0000 0.73380  0.00000  0.25000  Biso   1.000  O
  H13      1.0000 0.97670  0.29190  0.79400  Biso   1.000  H
  H14      1.0000 0.70810  0.68480  0.79400  Biso   1.000  H
  H15      1.0000 0.31520  0.02330  0.79400  Biso   1.000  H
  H16      1.0000 0.29190  0.97670  0.70600  Biso   1.000  H
  H17      1.0000 0.02330  0.31520  0.70600  Biso   1.000  H
  H18      1.0000 0.68480  0.70810  0.70600  Biso   1.000  H
  H19      1.0000 0.02330  0.70810  0.20600  Biso   1.000  H
  H20      1.0000 0.29190  0.31520  0.20600  Biso   1.000  H
  H21      1.0000 0.68480  0.97670  0.20600  Biso   1.000  H
  H22      1.0000 0.70810  0.02330  0.29400  Biso   1.000  H
  H23      1.0000 0.97670  0.68480  0.29400  Biso   1.000  H
  H24      1.0000 0.31520  0.29190  0.29400  Biso   1.000  H
  C1       1.0000 0.81500  0.54670  0.06990  Biso   1.000  C
  C2       1.0000 0.45330  0.26830  0.06990  Biso   1.000  C
  C3       1.0000 0.73170  0.18500  0.06990  Biso   1.000  C
  C4       1.0000 0.54670  0.81500  0.43010  Biso   1.000  C
  C5       1.0000 0.18500  0.73170  0.43010  Biso   1.000  C
  C6       1.0000 0.26830  0.45330  0.43010  Biso   1.000  C
  C7       1.0000 0.18500  0.45330  0.93010  Biso   1.000  C
  C8       1.0000 0.54670  0.73170  0.93010  Biso   1.000  C
  C9       1.0000 0.26830  0.81500  0.93010  Biso   1.000  C
  C10      1.0000 0.45330  0.18500  0.56990  Biso   1.000  C
  C11      1.0000 0.81500  0.26830  0.56990  Biso   1.000  C
  C12      1.0000 0.73170  0.54670  0.56990  Biso   1.000  C
  C13      1.0000 0.90180  0.64830  0.01020  Biso   1.000  C
  C14      1.0000 0.35170  0.25350  0.01020  Biso   1.000  C
  C15      1.0000 0.74650  0.09820  0.01020  Biso   1.000  C
  C16      1.0000 0.64830  0.90180  0.48980  Biso   1.000  C
  C17      1.0000 0.09820  0.74650  0.48980  Biso   1.000  C
  C18      1.0000 0.25350  0.35170  0.48980  Biso   1.000  C
  C19      1.0000 0.09820  0.35170  0.98980  Biso   1.000  C
  C20      1.0000 0.64830  0.74650  0.98980  Biso   1.000  C
  C21      1.0000 0.25350  0.90180  0.98980  Biso   1.000  C
  C22      1.0000 0.35170  0.09820  0.51020  Biso   1.000  C
  C23      1.0000 0.90180  0.25350  0.51020  Biso   1.000  C
  C24      1.0000 0.74650  0.64830  0.51020  Biso   1.000  C
  H25      1.0000 0.86200  0.68220  0.97810  Biso   1.000  H
  H26      1.0000 0.31780  0.17980  0.97810  Biso   1.000  H
  H27      1.0000 0.82020  0.13800  0.97810  Biso   1.000  H
  H28      1.0000 0.68220  0.86200  0.52190  Biso   1.000  H
  H29      1.0000 0.13800  0.82020  0.52190  Biso   1.000  H
  H30      1.0000 0.17980  0.31780  0.52190  Biso   1.000  H
  H31      1.0000 0.13800  0.31780  0.02190  Biso   1.000  H
  H32      1.0000 0.68220  0.82020  0.02190  Biso   1.000  H
  H33      1.0000 0.17980  0.86200  0.02190  Biso   1.000  H
  H34      1.0000 0.31780  0.13800  0.47810  Biso   1.000  H
  H35      1.0000 0.86200  0.17980  0.47810  Biso   1.000  H
  H36      1.0000 0.82020  0.68220  0.47810  Biso   1.000  H
  H37      1.0000 0.96020  0.70720  0.05000  Biso   1.000  H
  H38      1.0000 0.29280  0.25300  0.05000  Biso   1.000  H
  H39      1.0000 0.74700  0.03980  0.05000  Biso   1.000  H
  H40      1.0000 0.70720  0.96020  0.45000  Biso   1.000  H
  H41      1.0000 0.03980  0.74700  0.45000  Biso   1.000  H
  H42      1.0000 0.25300  0.29280  0.45000  Biso   1.000  H
  H43      1.0000 0.03980  0.29280  0.95000  Biso   1.000  H
  H44      1.0000 0.70720  0.74700  0.95000  Biso   1.000  H
  H45      1.0000 0.25300  0.96020  0.95000  Biso   1.000  H
  H46      1.0000 0.29280  0.03980  0.55000  Biso   1.000  H
  H47      1.0000 0.96020  0.25300  0.55000  Biso   1.000  H
  H48      1.0000 0.74700  0.70720  0.55000  Biso   1.000  H
  C25      1.0000 0.87370  0.43660  0.83910  Biso   1.000  C
  C26      1.0000 0.56340  0.43710  0.83910  Biso   1.000  C
  C27      1.0000 0.56290  0.12630  0.83910  Biso   1.000  C
  C28      1.0000 0.43660  0.87370  0.66090  Biso   1.000  C
  C29      1.0000 0.12630  0.56290  0.66090  Biso   1.000  C
  C30      1.0000 0.43710  0.56340  0.66090  Biso   1.000  C
  C31      1.0000 0.12630  0.56340  0.16090  Biso   1.000  C
  C32      1.0000 0.43660  0.56290  0.16090  Biso   1.000  C
  C33      1.0000 0.43710  0.87370  0.16090  Biso   1.000  C
  C34      1.0000 0.56340  0.12630  0.33910  Biso   1.000  C
  C35      1.0000 0.87370  0.43710  0.33910  Biso   1.000  C
  C36      1.0000 0.56290  0.43660  0.33910  Biso   1.000  C
  C37      1.0000 0.88280  0.55210  0.85950  Biso   1.000  C
  C38      1.0000 0.44790  0.33070  0.85950  Biso   1.000  C
  C39      1.0000 0.66930  0.11720  0.85950  Biso   1.000  C
  C40      1.0000 0.55210  0.88280  0.64050  Biso   1.000  C
  C41      1.0000 0.11720  0.66930  0.64050  Biso   1.000  C
  C42      1.0000 0.33070  0.44790  0.64050  Biso   1.000  C
  C43      1.0000 0.11720  0.44790  0.14050  Biso   1.000  C
  C44      1.0000 0.55210  0.66930  0.14050  Biso   1.000  C
  C45      1.0000 0.33070  0.88280  0.14050  Biso   1.000  C
  C46      1.0000 0.44790  0.11720  0.35950  Biso   1.000  C
  C47      1.0000 0.88280  0.33070  0.35950  Biso   1.000  C
  C48      1.0000 0.66930  0.55210  0.35950  Biso   1.000  C
  H49      1.0000 0.91420  0.60180  0.80560  Biso   1.000  H
  H50      1.0000 0.39820  0.31240  0.80560  Biso   1.000  H
  H51      1.0000 0.68760  0.08580  0.80560  Biso   1.000  H
  H52      1.0000 0.60180  0.91420  0.69440  Biso   1.000  H
  H53      1.0000 0.08580  0.68760  0.69440  Biso   1.000  H
  H54      1.0000 0.31240  0.39820  0.69440  Biso   1.000  H
  H55      1.0000 0.08580  0.39820  0.19440  Biso   1.000  H
  H56      1.0000 0.60180  0.68760  0.19440  Biso   1.000  H
  H57      1.0000 0.31240  0.91420  0.19440  Biso   1.000  H
  H58      1.0000 0.39820  0.08580  0.30560  Biso   1.000  H
  H59      1.0000 0.91420  0.31240  0.30560  Biso   1.000  H
  H60      1.0000 0.68760  0.60180  0.30560  Biso   1.000  H
  H61      1.0000 0.80600  0.54030  0.87100  Biso   1.000  H
  H62      1.0000 0.45970  0.26570  0.87100  Biso   1.000  H
  H63      1.0000 0.73430  0.19400  0.87100  Biso   1.000  H
  H64      1.0000 0.54030  0.80600  0.62900  Biso   1.000  H
  H65      1.0000 0.19400  0.73430  0.62900  Biso   1.000  H
  H66      1.0000 0.26570  0.45970  0.62900  Biso   1.000  H
  H67      1.0000 0.19400  0.45970  0.12900  Biso   1.000  H
  H68      1.0000 0.54030  0.73430  0.12900  Biso   1.000  H
  H69      1.0000 0.26570  0.80600  0.12900  Biso   1.000  H
  H70      1.0000 0.45970  0.19400  0.37100  Biso   1.000  H
  H71      1.0000 0.80600  0.26570  0.37100  Biso   1.000  H
  H72      1.0000 0.73430  0.54030  0.37100  Biso   1.000  H
