data_image0
_cell_length_a       14.6242
_cell_length_b       14.6242
_cell_length_c       15.187
_cell_angle_alpha    90
_cell_angle_beta     90
_cell_angle_gamma    120

_symmetry_space_group_name_H-M    "P 1"
_symmetry_int_tables_number       1

loop_
  _symmetry_equiv_pos_as_xyz
  'x, y, z'

loop_
  _atom_site_label
  _atom_site_occupancy
  _atom_site_fract_x
  _atom_site_fract_y
  _atom_site_fract_z
  _atom_site_thermal_displace_type
  _atom_site_B_iso_or_equiv
  _atom_site_type_symbol
  O1       1.0000 0.25930  0.18400  0.00000  Biso   1.000  O
  O2       1.0000 0.81600  0.07530  0.00000  Biso   1.000  O
  O3       1.0000 0.92470  0.74070  0.00000  Biso   1.000  O
  O4       1.0000 0.18400  0.92470  0.00000  Biso   1.000  O
  O5       1.0000 0.07530  0.25930  0.00000  Biso   1.000  O
  O6       1.0000 0.18400  0.25930  0.50000  Biso   1.000  O
  O7       1.0000 0.07530  0.81600  0.50000  Biso   1.000  O
  O8       1.0000 0.74070  0.92470  0.50000  Biso   1.000  O
  O9       1.0000 0.81600  0.74070  0.50000  Biso   1.000  O
  O10      1.0000 0.92470  0.18400  0.50000  Biso   1.000  O
  O11      1.0000 0.25930  0.07530  0.50000  Biso   1.000  O
  O12      1.0000 0.74070  0.81600  0.00000  Biso   1.000  O
  O13      1.0000 0.01800  0.86100  0.33500  Biso   1.000  O
  O14      1.0000 0.13900  0.15700  0.33500  Biso   1.000  O
  O15      1.0000 0.84300  0.98200  0.33500  Biso   1.000  O
  O16      1.0000 0.86100  0.84300  0.33500  Biso   1.000  O
  O17      1.0000 0.15700  0.01800  0.33500  Biso   1.000  O
  O18      1.0000 0.86100  0.01800  0.16500  Biso   1.000  O
  O19      1.0000 0.15700  0.13900  0.16500  Biso   1.000  O
  O20      1.0000 0.98200  0.84300  0.16500  Biso   1.000  O
  O21      1.0000 0.13900  0.98200  0.16500  Biso   1.000  O
  O22      1.0000 0.84300  0.86100  0.16500  Biso   1.000  O
  O23      1.0000 0.01800  0.15700  0.16500  Biso   1.000  O
  O24      1.0000 0.98200  0.13900  0.33500  Biso   1.000  O
  O25      1.0000 0.98200  0.13900  0.66500  Biso   1.000  O
  O26      1.0000 0.86100  0.84300  0.66500  Biso   1.000  O
  O27      1.0000 0.15700  0.01800  0.66500  Biso   1.000  O
  O28      1.0000 0.13900  0.15700  0.66500  Biso   1.000  O
  O29      1.0000 0.84300  0.98200  0.66500  Biso   1.000  O
  O30      1.0000 0.13900  0.98200  0.83500  Biso   1.000  O
  O31      1.0000 0.84300  0.86100  0.83500  Biso   1.000  O
  O32      1.0000 0.01800  0.15700  0.83500  Biso   1.000  O
  O33      1.0000 0.86100  0.01800  0.83500  Biso   1.000  O
  O34      1.0000 0.15700  0.13900  0.83500  Biso   1.000  O
  O35      1.0000 0.98200  0.84300  0.83500  Biso   1.000  O
  O36      1.0000 0.01800  0.86100  0.66500  Biso   1.000  O
  Dy1      1.0000 0.66670  0.33330  0.25000  Biso   1.000  Dy
  Dy2      1.0000 0.33330  0.66660  0.25000  Biso   1.000  Dy
  Dy3      1.0000 0.33330  0.66670  0.75000  Biso   1.000  Dy
  Dy4      1.0000 0.66670  0.33340  0.75000  Biso   1.000  Dy
  Cu1      1.0000 0.00000  0.50000  0.50000  Biso   1.000  Cu
  Cu2      1.0000 0.50000  0.50000  0.50000  Biso   1.000  Cu
  Cu3      1.0000 0.50000  0.00000  0.50000  Biso   1.000  Cu
  Cu4      1.0000 0.50000  0.00000  0.00000  Biso   1.000  Cu
  Cu5      1.0000 0.50000  0.50000  0.00000  Biso   1.000  Cu
  Cu6      1.0000 0.00000  0.50000  0.00000  Biso   1.000  Cu
  O37      1.0000 0.80450  0.41700  0.35560  Biso   1.000  O
  O38      1.0000 0.58300  0.38750  0.35560  Biso   1.000  O
  O39      1.0000 0.61250  0.19550  0.35560  Biso   1.000  O
  O40      1.0000 0.41700  0.61250  0.35560  Biso   1.000  O
  O41      1.0000 0.38750  0.80450  0.35560  Biso   1.000  O
  O42      1.0000 0.41700  0.80450  0.14440  Biso   1.000  O
  O43      1.0000 0.38750  0.58300  0.14440  Biso   1.000  O
  O44      1.0000 0.19550  0.61250  0.14440  Biso   1.000  O
  O45      1.0000 0.58300  0.19550  0.14440  Biso   1.000  O
  O46      1.0000 0.61250  0.41700  0.14440  Biso   1.000  O
  O47      1.0000 0.80450  0.38750  0.14440  Biso   1.000  O
  O48      1.0000 0.19550  0.58300  0.35560  Biso   1.000  O
  O49      1.0000 0.19550  0.58300  0.64440  Biso   1.000  O
  O50      1.0000 0.41700  0.61250  0.64440  Biso   1.000  O
  O51      1.0000 0.38750  0.80450  0.64440  Biso   1.000  O
  O52      1.0000 0.58300  0.38750  0.64440  Biso   1.000  O
  O53      1.0000 0.61250  0.19550  0.64440  Biso   1.000  O
  O54      1.0000 0.58300  0.19550  0.85560  Biso   1.000  O
  O55      1.0000 0.61250  0.41700  0.85560  Biso   1.000  O
  O56      1.0000 0.80450  0.38750  0.85560  Biso   1.000  O
  O57      1.0000 0.41700  0.80450  0.85560  Biso   1.000  O
  O58      1.0000 0.38750  0.58300  0.85560  Biso   1.000  O
  O59      1.0000 0.19550  0.61250  0.85560  Biso   1.000  O
  O60      1.0000 0.80450  0.41700  0.64440  Biso   1.000  O
  O61      1.0000 0.94710  0.55740  0.41060  Biso   1.000  O
  O62      1.0000 0.44260  0.38970  0.41060  Biso   1.000  O
  O63      1.0000 0.61030  0.05290  0.41060  Biso   1.000  O
  O64      1.0000 0.55740  0.61030  0.41060  Biso   1.000  O
  O65      1.0000 0.38970  0.94710  0.41060  Biso   1.000  O
  O66      1.0000 0.55740  0.94710  0.08940  Biso   1.000  O
  O67      1.0000 0.38970  0.44260  0.08940  Biso   1.000  O
  O68      1.0000 0.05290  0.61030  0.08940  Biso   1.000  O
  O69      1.0000 0.44260  0.05290  0.08940  Biso   1.000  O
  O70      1.0000 0.61030  0.55740  0.08940  Biso   1.000  O
  O71      1.0000 0.94710  0.38970  0.08940  Biso   1.000  O
  O72      1.0000 0.05290  0.44260  0.41060  Biso   1.000  O
  O73      1.0000 0.05290  0.44260  0.58940  Biso   1.000  O
  O74      1.0000 0.55740  0.61030  0.58940  Biso   1.000  O
  O75      1.0000 0.38970  0.94710  0.58940  Biso   1.000  O
  O76      1.0000 0.44260  0.38970  0.58940  Biso   1.000  O
  O77      1.0000 0.61030  0.05290  0.58940  Biso   1.000  O
  O78      1.0000 0.44260  0.05290  0.91060  Biso   1.000  O
  O79      1.0000 0.61030  0.55740  0.91060  Biso   1.000  O
  O80      1.0000 0.94710  0.38970  0.91060  Biso   1.000  O
  O81      1.0000 0.55740  0.94710  0.91060  Biso   1.000  O
  O82      1.0000 0.38970  0.44260  0.91060  Biso   1.000  O
  O83      1.0000 0.05290  0.61030  0.91060  Biso   1.000  O
  O84      1.0000 0.94710  0.55740  0.58940  Biso   1.000  O
  O85      1.0000 0.76387  0.52770  0.25000  Biso   1.000  O
  O86      1.0000 0.47230  0.23617  0.25000  Biso   1.000  O
  O87      1.0000 0.76383  0.23613  0.25000  Biso   1.000  O
  O88      1.0000 0.52770  0.76383  0.25000  Biso   1.000  O
  O89      1.0000 0.23617  0.76387  0.25000  Biso   1.000  O
  O90      1.0000 0.23617  0.47230  0.25000  Biso   1.000  O
  O91      1.0000 0.23613  0.47230  0.75000  Biso   1.000  O
  O92      1.0000 0.52770  0.76383  0.75000  Biso   1.000  O
  O93      1.0000 0.23617  0.76387  0.75000  Biso   1.000  O
  O94      1.0000 0.47230  0.23617  0.75000  Biso   1.000  O
  O95      1.0000 0.76383  0.23613  0.75000  Biso   1.000  O
  O96      1.0000 0.76383  0.52770  0.75000  Biso   1.000  O
  C1       1.0000 0.86940  0.51440  0.36090  Biso   1.000  C
  C2       1.0000 0.48560  0.35500  0.36090  Biso   1.000  C
  C3       1.0000 0.64500  0.13060  0.36090  Biso   1.000  C
  C4       1.0000 0.51440  0.64500  0.36090  Biso   1.000  C
  C5       1.0000 0.35500  0.86940  0.36090  Biso   1.000  C
  C6       1.0000 0.51440  0.86940  0.13910  Biso   1.000  C
  C7       1.0000 0.35500  0.48560  0.13910  Biso   1.000  C
  C8       1.0000 0.13060  0.64500  0.13910  Biso   1.000  C
  C9       1.0000 0.48560  0.13060  0.13910  Biso   1.000  C
  C10      1.0000 0.64500  0.51440  0.13910  Biso   1.000  C
  C11      1.0000 0.86940  0.35500  0.13910  Biso   1.000  C
  C12      1.0000 0.13060  0.48560  0.36090  Biso   1.000  C
  C13      1.0000 0.13060  0.48560  0.63910  Biso   1.000  C
  C14      1.0000 0.51440  0.64500  0.63910  Biso   1.000  C
  C15      1.0000 0.35500  0.86940  0.63910  Biso   1.000  C
  C16      1.0000 0.48560  0.35500  0.63910  Biso   1.000  C
  C17      1.0000 0.64500  0.13060  0.63910  Biso   1.000  C
  C18      1.0000 0.48560  0.13060  0.86090  Biso   1.000  C
  C19      1.0000 0.64500  0.51440  0.86090  Biso   1.000  C
  C20      1.0000 0.86940  0.35500  0.86090  Biso   1.000  C
  C21      1.0000 0.51440  0.86940  0.86090  Biso   1.000  C
  C22      1.0000 0.35500  0.48560  0.86090  Biso   1.000  C
  C23      1.0000 0.13060  0.64500  0.86090  Biso   1.000  C
  C24      1.0000 0.86940  0.51440  0.63910  Biso   1.000  C
  C25      1.0000 0.85060  0.58730  0.30380  Biso   1.000  C
  C26      1.0000 0.41270  0.26330  0.30380  Biso   1.000  C
  C27      1.0000 0.73670  0.14940  0.30380  Biso   1.000  C
  C28      1.0000 0.58730  0.73670  0.30380  Biso   1.000  C
  C29      1.0000 0.26330  0.85060  0.30380  Biso   1.000  C
  C30      1.0000 0.58730  0.85060  0.19620  Biso   1.000  C
  C31      1.0000 0.26330  0.41270  0.19620  Biso   1.000  C
  C32      1.0000 0.14940  0.73670  0.19620  Biso   1.000  C
  C33      1.0000 0.41270  0.14940  0.19620  Biso   1.000  C
  C34      1.0000 0.73670  0.58730  0.19620  Biso   1.000  C
  C35      1.0000 0.85060  0.26330  0.19620  Biso   1.000  C
  C36      1.0000 0.14940  0.41270  0.30380  Biso   1.000  C
  C37      1.0000 0.14940  0.41270  0.69620  Biso   1.000  C
  C38      1.0000 0.58730  0.73670  0.69620  Biso   1.000  C
  C39      1.0000 0.26330  0.85060  0.69620  Biso   1.000  C
  C40      1.0000 0.41270  0.26330  0.69620  Biso   1.000  C
  C41      1.0000 0.73670  0.14940  0.69620  Biso   1.000  C
  C42      1.0000 0.41270  0.14940  0.80380  Biso   1.000  C
  C43      1.0000 0.73670  0.58730  0.80380  Biso   1.000  C
  C44      1.0000 0.85060  0.26330  0.80380  Biso   1.000  C
  C45      1.0000 0.58730  0.85060  0.80380  Biso   1.000  C
  C46      1.0000 0.26330  0.41270  0.80380  Biso   1.000  C
  C47      1.0000 0.14940  0.73670  0.80380  Biso   1.000  C
  C48      1.0000 0.85060  0.58730  0.69620  Biso   1.000  C
  H1       1.0000 0.83770  0.63400  0.34040  Biso   1.000  H
  H2       1.0000 0.36600  0.20370  0.34040  Biso   1.000  H
  H3       1.0000 0.79630  0.16230  0.34040  Biso   1.000  H
  H4       1.0000 0.63400  0.79630  0.34040  Biso   1.000  H
  H5       1.0000 0.20370  0.83770  0.34040  Biso   1.000  H
  H6       1.0000 0.63400  0.83770  0.15960  Biso   1.000  H
  H7       1.0000 0.20370  0.36600  0.15960  Biso   1.000  H
  H8       1.0000 0.16230  0.79630  0.15960  Biso   1.000  H
  H9       1.0000 0.36600  0.16230  0.15960  Biso   1.000  H
  H10      1.0000 0.79630  0.63400  0.15960  Biso   1.000  H
  H11      1.0000 0.83770  0.20370  0.15960  Biso   1.000  H
  H12      1.0000 0.16230  0.36600  0.34040  Biso   1.000  H
  H13      1.0000 0.16230  0.36600  0.65960  Biso   1.000  H
  H14      1.0000 0.63400  0.79630  0.65960  Biso   1.000  H
  H15      1.0000 0.20370  0.83770  0.65960  Biso   1.000  H
  H16      1.0000 0.36600  0.20370  0.65960  Biso   1.000  H
  H17      1.0000 0.79630  0.16230  0.65960  Biso   1.000  H
  H18      1.0000 0.36600  0.16230  0.84040  Biso   1.000  H
  H19      1.0000 0.79630  0.63400  0.84040  Biso   1.000  H
  H20      1.0000 0.83770  0.20370  0.84040  Biso   1.000  H
  H21      1.0000 0.63400  0.83770  0.84040  Biso   1.000  H
  H22      1.0000 0.20370  0.36600  0.84040  Biso   1.000  H
  H23      1.0000 0.16230  0.79630  0.84040  Biso   1.000  H
  H24      1.0000 0.83770  0.63400  0.65960  Biso   1.000  H
  H25      1.0000 0.91250  0.63010  0.26800  Biso   1.000  H
  H26      1.0000 0.36990  0.28240  0.26800  Biso   1.000  H
  H27      1.0000 0.71760  0.08750  0.26800  Biso   1.000  H
  H28      1.0000 0.63010  0.71760  0.26800  Biso   1.000  H
  H29      1.0000 0.28240  0.91250  0.26800  Biso   1.000  H
  H30      1.0000 0.63010  0.91250  0.23200  Biso   1.000  H
  H31      1.0000 0.28240  0.36990  0.23200  Biso   1.000  H
  H32      1.0000 0.08750  0.71760  0.23200  Biso   1.000  H
  H33      1.0000 0.36990  0.08750  0.23200  Biso   1.000  H
  H34      1.0000 0.71760  0.63010  0.23200  Biso   1.000  H
  H35      1.0000 0.91250  0.28240  0.23200  Biso   1.000  H
  H36      1.0000 0.08750  0.36990  0.26800  Biso   1.000  H
  H37      1.0000 0.08750  0.36990  0.73200  Biso   1.000  H
  H38      1.0000 0.63010  0.71760  0.73200  Biso   1.000  H
  H39      1.0000 0.28240  0.91250  0.73200  Biso   1.000  H
  H40      1.0000 0.36990  0.28240  0.73200  Biso   1.000  H
  H41      1.0000 0.71760  0.08750  0.73200  Biso   1.000  H
  H42      1.0000 0.36990  0.08750  0.76800  Biso   1.000  H
  H43      1.0000 0.71760  0.63010  0.76800  Biso   1.000  H
  H44      1.0000 0.91250  0.28240  0.76800  Biso   1.000  H
  H45      1.0000 0.63010  0.91250  0.76800  Biso   1.000  H
  H46      1.0000 0.28240  0.36990  0.76800  Biso   1.000  H
  H47      1.0000 0.08750  0.71760  0.76800  Biso   1.000  H
  H48      1.0000 0.91250  0.63010  0.73200  Biso   1.000  H
  O97      1.0000 0.83920  0.32110  0.50000  Biso   1.000  O
  O98      1.0000 0.67890  0.51810  0.50000  Biso   1.000  O
  O99      1.0000 0.48190  0.16080  0.50000  Biso   1.000  O
  O100     1.0000 0.32110  0.48190  0.50000  Biso   1.000  O
  O101     1.0000 0.51810  0.83920  0.50000  Biso   1.000  O
  O102     1.0000 0.32110  0.83920  0.00000  Biso   1.000  O
  O103     1.0000 0.51810  0.67890  0.00000  Biso   1.000  O
  O104     1.0000 0.16080  0.48190  0.00000  Biso   1.000  O
  O105     1.0000 0.67890  0.16080  0.00000  Biso   1.000  O
  O106     1.0000 0.48190  0.32110  0.00000  Biso   1.000  O
  O107     1.0000 0.83920  0.51810  0.00000  Biso   1.000  O
  O108     1.0000 0.16080  0.67890  0.50000  Biso   1.000  O
  O109     1.0000 0.20800  0.22400  0.00000  Biso   1.000  O
  O110     1.0000 0.77600  0.98400  0.00000  Biso   1.000  O
  O111     1.0000 0.01600  0.79200  0.00000  Biso   1.000  O
  O112     1.0000 0.22400  0.01600  0.00000  Biso   1.000  O
  O113     1.0000 0.98400  0.20800  0.00000  Biso   1.000  O
  O114     1.0000 0.22400  0.20800  0.50000  Biso   1.000  O
  O115     1.0000 0.98400  0.77600  0.50000  Biso   1.000  O
  O116     1.0000 0.79200  0.01600  0.50000  Biso   1.000  O
  O117     1.0000 0.77600  0.79200  0.50000  Biso   1.000  O
  O118     1.0000 0.01600  0.22400  0.50000  Biso   1.000  O
  O119     1.0000 0.20800  0.98400  0.50000  Biso   1.000  O
  O120     1.0000 0.79200  0.77600  0.00000  Biso   1.000  O
  O121     1.0000 0.00000  0.85200  0.25000  Biso   1.000  O
  O122     1.0000 0.14800  0.14800  0.25000  Biso   1.000  O
  O123     1.0000 0.85200  0.00000  0.25000  Biso   1.000  O
  O124     1.0000 0.85200  0.85200  0.25000  Biso   1.000  O
  O125     1.0000 0.14800  0.00000  0.25000  Biso   1.000  O
  O126     1.0000 0.00000  0.14800  0.25000  Biso   1.000  O
  O127     1.0000 0.00000  0.14800  0.75000  Biso   1.000  O
  O128     1.0000 0.85200  0.85200  0.75000  Biso   1.000  O
  O129     1.0000 0.14800  0.00000  0.75000  Biso   1.000  O
  O130     1.0000 0.14800  0.14800  0.75000  Biso   1.000  O
  O131     1.0000 0.85200  0.00000  0.75000  Biso   1.000  O
  O132     1.0000 0.00000  0.85200  0.75000  Biso   1.000  O
