data_image0
_cell_length_a       14.516
_cell_length_b       14.516
_cell_length_c       15.279
_cell_angle_alpha    90
_cell_angle_beta     90
_cell_angle_gamma    120

_symmetry_space_group_name_H-M    "P 1"
_symmetry_int_tables_number       1

loop_
  _symmetry_equiv_pos_as_xyz
  'x, y, z'

loop_
  _atom_site_label
  _atom_site_occupancy
  _atom_site_fract_x
  _atom_site_fract_y
  _atom_site_fract_z
  _atom_site_thermal_displace_type
  _atom_site_B_iso_or_equiv
  _atom_site_type_symbol
  O1       1.0000 0.23740  0.76300  0.25000  Biso   1.000  O
  O2       1.0000 0.47440  0.23740  0.25000  Biso   1.000  O
  O3       1.0000 0.23700  0.47440  0.25000  Biso   1.000  O
  O4       1.0000 0.76260  0.23700  0.25000  Biso   1.000  O
  O5       1.0000 0.52560  0.76260  0.25000  Biso   1.000  O
  O6       1.0000 0.76300  0.52560  0.25000  Biso   1.000  O
  O7       1.0000 0.76260  0.23700  0.75000  Biso   1.000  O
  O8       1.0000 0.52560  0.76260  0.75000  Biso   1.000  O
  O9       1.0000 0.76300  0.52560  0.75000  Biso   1.000  O
  O10      1.0000 0.23740  0.76300  0.75000  Biso   1.000  O
  O11      1.0000 0.47440  0.23740  0.75000  Biso   1.000  O
  O12      1.0000 0.23700  0.47440  0.75000  Biso   1.000  O
  O13      1.0000 0.38750  0.80310  0.35530  Biso   1.000  O
  O14      1.0000 0.58440  0.38750  0.35530  Biso   1.000  O
  O15      1.0000 0.19690  0.61250  0.14470  Biso   1.000  O
  O16      1.0000 0.19690  0.58440  0.35530  Biso   1.000  O
  O17      1.0000 0.58440  0.19690  0.14470  Biso   1.000  O
  O18      1.0000 0.61250  0.19690  0.35530  Biso   1.000  O
  O19      1.0000 0.38750  0.58440  0.14470  Biso   1.000  O
  O20      1.0000 0.41560  0.61250  0.35530  Biso   1.000  O
  O21      1.0000 0.80310  0.38750  0.14470  Biso   1.000  O
  O22      1.0000 0.80310  0.41560  0.35530  Biso   1.000  O
  O23      1.0000 0.41560  0.80310  0.14470  Biso   1.000  O
  O24      1.0000 0.61250  0.41560  0.14470  Biso   1.000  O
  O25      1.0000 0.61250  0.19690  0.64470  Biso   1.000  O
  O26      1.0000 0.41560  0.61250  0.64470  Biso   1.000  O
  O27      1.0000 0.80310  0.38750  0.85530  Biso   1.000  O
  O28      1.0000 0.80310  0.41560  0.64470  Biso   1.000  O
  O29      1.0000 0.41560  0.80310  0.85530  Biso   1.000  O
  O30      1.0000 0.38750  0.80310  0.64470  Biso   1.000  O
  O31      1.0000 0.61250  0.41560  0.85530  Biso   1.000  O
  O32      1.0000 0.58440  0.38750  0.64470  Biso   1.000  O
  O33      1.0000 0.19690  0.61250  0.85530  Biso   1.000  O
  O34      1.0000 0.19690  0.58440  0.64470  Biso   1.000  O
  O35      1.0000 0.58440  0.19690  0.85530  Biso   1.000  O
  O36      1.0000 0.38750  0.58440  0.85530  Biso   1.000  O
  O37      1.0000 0.38910  0.94600  0.41140  Biso   1.000  O
  O38      1.0000 0.44310  0.38910  0.41140  Biso   1.000  O
  O39      1.0000 0.05400  0.61090  0.08860  Biso   1.000  O
  O40      1.0000 0.05400  0.44310  0.41140  Biso   1.000  O
  O41      1.0000 0.44310  0.05400  0.08860  Biso   1.000  O
  O42      1.0000 0.61090  0.05400  0.41140  Biso   1.000  O
  O43      1.0000 0.38910  0.44310  0.08860  Biso   1.000  O
  O44      1.0000 0.55690  0.61090  0.41140  Biso   1.000  O
  O45      1.0000 0.94600  0.38910  0.08860  Biso   1.000  O
  O46      1.0000 0.94600  0.55690  0.41140  Biso   1.000  O
  O47      1.0000 0.55690  0.94600  0.08860  Biso   1.000  O
  O48      1.0000 0.61090  0.55690  0.08860  Biso   1.000  O
  O49      1.0000 0.61090  0.05400  0.58860  Biso   1.000  O
  O50      1.0000 0.55690  0.61090  0.58860  Biso   1.000  O
  O51      1.0000 0.94600  0.38910  0.91140  Biso   1.000  O
  O52      1.0000 0.94600  0.55690  0.58860  Biso   1.000  O
  O53      1.0000 0.55690  0.94600  0.91140  Biso   1.000  O
  O54      1.0000 0.38910  0.94600  0.58860  Biso   1.000  O
  O55      1.0000 0.61090  0.55690  0.91140  Biso   1.000  O
  O56      1.0000 0.44310  0.38910  0.58860  Biso   1.000  O
  O57      1.0000 0.05400  0.61090  0.91140  Biso   1.000  O
  O58      1.0000 0.05400  0.44310  0.58860  Biso   1.000  O
  O59      1.0000 0.44310  0.05400  0.91140  Biso   1.000  O
  O60      1.0000 0.38910  0.44310  0.91140  Biso   1.000  O
  O61      1.0000 0.51600  0.83770  0.50000  Biso   1.000  O
  O62      1.0000 0.67830  0.51600  0.50000  Biso   1.000  O
  O63      1.0000 0.16230  0.48400  0.00000  Biso   1.000  O
  O64      1.0000 0.16230  0.67830  0.50000  Biso   1.000  O
  O65      1.0000 0.67830  0.16230  0.00000  Biso   1.000  O
  O66      1.0000 0.48400  0.16230  0.50000  Biso   1.000  O
  O67      1.0000 0.51600  0.67830  0.00000  Biso   1.000  O
  O68      1.0000 0.32170  0.48400  0.50000  Biso   1.000  O
  O69      1.0000 0.83770  0.51600  0.00000  Biso   1.000  O
  O70      1.0000 0.83770  0.32170  0.50000  Biso   1.000  O
  O71      1.0000 0.32170  0.83770  0.00000  Biso   1.000  O
  O72      1.0000 0.48400  0.32170  0.00000  Biso   1.000  O
  C1       1.0000 0.26290  0.85160  0.30570  Biso   1.000  C
  C2       1.0000 0.41130  0.26290  0.30570  Biso   1.000  C
  C3       1.0000 0.14840  0.73710  0.19430  Biso   1.000  C
  C4       1.0000 0.14840  0.41130  0.30570  Biso   1.000  C
  C5       1.0000 0.41130  0.14840  0.19430  Biso   1.000  C
  C6       1.0000 0.73710  0.14840  0.30570  Biso   1.000  C
  C7       1.0000 0.26290  0.41130  0.19430  Biso   1.000  C
  C8       1.0000 0.58870  0.73710  0.30570  Biso   1.000  C
  C9       1.0000 0.85160  0.26290  0.19430  Biso   1.000  C
  C10      1.0000 0.85160  0.58870  0.30570  Biso   1.000  C
  C11      1.0000 0.58870  0.85160  0.19430  Biso   1.000  C
  C12      1.0000 0.73710  0.58870  0.19430  Biso   1.000  C
  C13      1.0000 0.73710  0.14840  0.69430  Biso   1.000  C
  C14      1.0000 0.58870  0.73710  0.69430  Biso   1.000  C
  C15      1.0000 0.85160  0.26290  0.80570  Biso   1.000  C
  C16      1.0000 0.85160  0.58870  0.69430  Biso   1.000  C
  C17      1.0000 0.58870  0.85160  0.80570  Biso   1.000  C
  C18      1.0000 0.26290  0.85160  0.69430  Biso   1.000  C
  C19      1.0000 0.73710  0.58870  0.80570  Biso   1.000  C
  C20      1.0000 0.41130  0.26290  0.69430  Biso   1.000  C
  C21      1.0000 0.14840  0.73710  0.80570  Biso   1.000  C
  C22      1.0000 0.14840  0.41130  0.69430  Biso   1.000  C
  C23      1.0000 0.41130  0.14840  0.80570  Biso   1.000  C
  C24      1.0000 0.26290  0.41130  0.80570  Biso   1.000  C
  Er1      1.0000 0.33300  0.66700  0.25000  Biso   1.000  Er
  Er2      1.0000 0.66600  0.33300  0.25000  Biso   1.000  Er
  Er3      1.0000 0.33300  0.66600  0.25000  Biso   1.000  Er
  Er4      1.0000 0.66700  0.33300  0.25000  Biso   1.000  Er
  Er5      1.0000 0.66700  0.33300  0.75000  Biso   1.000  Er
  Er6      1.0000 0.33400  0.66700  0.75000  Biso   1.000  Er
  Er7      1.0000 0.66600  0.33300  0.75000  Biso   1.000  Er
  Er8      1.0000 0.33300  0.66600  0.75000  Biso   1.000  Er
  Cu1      1.0000 0.50000  0.00000  0.50000  Biso   1.000  Cu
  Cu2      1.0000 0.50000  0.50000  0.50000  Biso   1.000  Cu
  Cu3      1.0000 0.00000  0.50000  0.00000  Biso   1.000  Cu
  Cu4      1.0000 0.00000  0.50000  0.50000  Biso   1.000  Cu
  Cu5      1.0000 0.50000  0.00000  0.00000  Biso   1.000  Cu
  Cu6      1.0000 0.50000  0.50000  0.00000  Biso   1.000  Cu
  C25      1.0000 0.35410  0.86780  0.36190  Biso   1.000  C
  C26      1.0000 0.48630  0.35410  0.36190  Biso   1.000  C
  C27      1.0000 0.13220  0.64590  0.13810  Biso   1.000  C
  C28      1.0000 0.13220  0.48630  0.36190  Biso   1.000  C
  C29      1.0000 0.48630  0.13220  0.13810  Biso   1.000  C
  C30      1.0000 0.64590  0.13220  0.36190  Biso   1.000  C
  C31      1.0000 0.35410  0.48630  0.13810  Biso   1.000  C
  C32      1.0000 0.51370  0.64590  0.36190  Biso   1.000  C
  C33      1.0000 0.86780  0.35410  0.13810  Biso   1.000  C
  C34      1.0000 0.86780  0.51370  0.36190  Biso   1.000  C
  C35      1.0000 0.51370  0.86780  0.13810  Biso   1.000  C
  C36      1.0000 0.64590  0.51370  0.13810  Biso   1.000  C
  C37      1.0000 0.64590  0.13220  0.63810  Biso   1.000  C
  C38      1.0000 0.51370  0.64590  0.63810  Biso   1.000  C
  C39      1.0000 0.86780  0.35410  0.86190  Biso   1.000  C
  C40      1.0000 0.86780  0.51370  0.63810  Biso   1.000  C
  C41      1.0000 0.51370  0.86780  0.86190  Biso   1.000  C
  C42      1.0000 0.35410  0.86780  0.63810  Biso   1.000  C
  C43      1.0000 0.64590  0.51370  0.86190  Biso   1.000  C
  C44      1.0000 0.48630  0.35410  0.63810  Biso   1.000  C
  C45      1.0000 0.13220  0.64590  0.86190  Biso   1.000  C
  C46      1.0000 0.13220  0.48630  0.63810  Biso   1.000  C
  C47      1.0000 0.48630  0.13220  0.86190  Biso   1.000  C
  C48      1.0000 0.35410  0.48630  0.86190  Biso   1.000  C
  Er9      1.0000 0.66700  0.33400  0.75000  Biso   1.000  Er
  Er10     1.0000 0.33300  0.66700  0.75000  Biso   1.000  Er
  Er11     1.0000 0.33400  0.66700  0.25000  Biso   1.000  Er
  Er12     1.0000 0.66700  0.33400  0.25000  Biso   1.000  Er
