data_image0
_cell_length_a       17.859
_cell_length_b       17.086
_cell_length_c       7.9378
_cell_angle_alpha    90
_cell_angle_beta     111.577
_cell_angle_gamma    90

_symmetry_space_group_name_H-M    "P 1"
_symmetry_int_tables_number       1

loop_
  _symmetry_equiv_pos_as_xyz
  'x, y, z'

loop_
  _atom_site_label
  _atom_site_occupancy
  _atom_site_fract_x
  _atom_site_fract_y
  _atom_site_fract_z
  _atom_site_thermal_displace_type
  _atom_site_B_iso_or_equiv
  _atom_site_type_symbol
  Cu1      1.0000 0.25000  0.25000  0.00000  Biso   1.000  Cu
  Cu2      1.0000 0.75000  0.25000  0.50000  Biso   1.000  Cu
  Cu3      1.0000 0.75000  0.75000  0.00000  Biso   1.000  Cu
  Cu4      1.0000 0.25000  0.75000  0.50000  Biso   1.000  Cu
  O1       1.0000 0.32340  0.19050  0.20800  Biso   1.000  O
  O2       1.0000 0.67660  0.19050  0.29200  Biso   1.000  O
  O3       1.0000 0.82340  0.69050  0.20800  Biso   1.000  O
  O4       1.0000 0.17660  0.69050  0.29200  Biso   1.000  O
  O5       1.0000 0.67660  0.80950  0.79200  Biso   1.000  O
  O6       1.0000 0.32340  0.80950  0.70800  Biso   1.000  O
  O7       1.0000 0.17660  0.30950  0.79200  Biso   1.000  O
  O8       1.0000 0.82340  0.30950  0.70800  Biso   1.000  O
  O9       1.0000 0.25940  0.09270  0.01600  Biso   1.000  O
  O10      1.0000 0.74060  0.09270  0.48400  Biso   1.000  O
  O11      1.0000 0.75940  0.59270  0.01600  Biso   1.000  O
  O12      1.0000 0.24060  0.59270  0.48400  Biso   1.000  O
  O13      1.0000 0.74060  0.90730  0.98400  Biso   1.000  O
  O14      1.0000 0.25940  0.90730  0.51600  Biso   1.000  O
  O15      1.0000 0.24060  0.40730  0.98400  Biso   1.000  O
  O16      1.0000 0.75940  0.40730  0.51600  Biso   1.000  O
  O17      1.0000 0.42980  0.07450  0.39100  Biso   1.000  O
  O18      1.0000 0.57020  0.07450  0.10900  Biso   1.000  O
  O19      1.0000 0.92980  0.57450  0.39100  Biso   1.000  O
  O20      1.0000 0.07020  0.57450  0.10900  Biso   1.000  O
  O21      1.0000 0.57020  0.92550  0.60900  Biso   1.000  O
  O22      1.0000 0.42980  0.92550  0.89100  Biso   1.000  O
  O23      1.0000 0.07020  0.42550  0.60900  Biso   1.000  O
  O24      1.0000 0.92980  0.42550  0.89100  Biso   1.000  O
  O25      1.0000 0.24280  0.07100  0.06900  Biso   1.000  O
  O26      1.0000 0.75720  0.07100  0.43100  Biso   1.000  O
  O27      1.0000 0.74280  0.57100  0.06900  Biso   1.000  O
  O28      1.0000 0.25720  0.57100  0.43100  Biso   1.000  O
  O29      1.0000 0.75720  0.92900  0.93100  Biso   1.000  O
  O30      1.0000 0.24280  0.92900  0.56900  Biso   1.000  O
  O31      1.0000 0.25720  0.42900  0.93100  Biso   1.000  O
  O32      1.0000 0.74280  0.42900  0.56900  Biso   1.000  O
  O33      1.0000 0.31630  0.17110  0.16600  Biso   1.000  O
  O34      1.0000 0.68370  0.17110  0.33400  Biso   1.000  O
  O35      1.0000 0.81630  0.67110  0.16600  Biso   1.000  O
  O36      1.0000 0.18370  0.67110  0.33400  Biso   1.000  O
  O37      1.0000 0.68370  0.82890  0.83400  Biso   1.000  O
  O38      1.0000 0.31630  0.82890  0.66600  Biso   1.000  O
  O39      1.0000 0.18370  0.32890  0.83400  Biso   1.000  O
  O40      1.0000 0.81630  0.32890  0.66600  Biso   1.000  O
  C1       1.0000 0.31300  0.12290  0.16700  Biso   1.000  C
  C2       1.0000 0.68700  0.12290  0.33300  Biso   1.000  C
  C3       1.0000 0.81300  0.62290  0.16700  Biso   1.000  C
  C4       1.0000 0.18700  0.62290  0.33300  Biso   1.000  C
  C5       1.0000 0.68700  0.87710  0.83300  Biso   1.000  C
  C6       1.0000 0.31300  0.87710  0.66700  Biso   1.000  C
  C7       1.0000 0.18700  0.37710  0.83300  Biso   1.000  C
  C8       1.0000 0.81300  0.37710  0.66700  Biso   1.000  C
  C9       1.0000 0.37080  0.05900  0.28800  Biso   1.000  C
  C10      1.0000 0.62920  0.05900  0.21200  Biso   1.000  C
  C11      1.0000 0.87080  0.55900  0.28800  Biso   1.000  C
  C12      1.0000 0.12920  0.55900  0.21200  Biso   1.000  C
  C13      1.0000 0.62920  0.94100  0.71200  Biso   1.000  C
  C14      1.0000 0.37080  0.94100  0.78800  Biso   1.000  C
  C15      1.0000 0.12920  0.44100  0.71200  Biso   1.000  C
  C16      1.0000 0.87080  0.44100  0.78800  Biso   1.000  C
  C17      1.0000 0.44920  0.09820  0.39400  Biso   1.000  C
  C18      1.0000 0.55080  0.09820  0.10600  Biso   1.000  C
  C19      1.0000 0.94920  0.59820  0.39400  Biso   1.000  C
  C20      1.0000 0.05080  0.59820  0.10600  Biso   1.000  C
  C21      1.0000 0.55080  0.90180  0.60600  Biso   1.000  C
  C22      1.0000 0.44920  0.90180  0.89400  Biso   1.000  C
  C23      1.0000 0.05080  0.40180  0.60600  Biso   1.000  C
  C24      1.0000 0.94920  0.40180  0.89400  Biso   1.000  C
  H1       1.0000 0.45370  0.15410  0.38890  Biso   1.000  H
  H2       1.0000 0.54630  0.15410  0.11110  Biso   1.000  H
  H3       1.0000 0.95370  0.65410  0.38890  Biso   1.000  H
  H4       1.0000 0.04630  0.65410  0.11110  Biso   1.000  H
  H5       1.0000 0.54630  0.84590  0.61110  Biso   1.000  H
  H6       1.0000 0.45370  0.84590  0.88890  Biso   1.000  H
  H7       1.0000 0.04630  0.34590  0.61110  Biso   1.000  H
  H8       1.0000 0.95370  0.34590  0.88890  Biso   1.000  H
  C25      1.0000 0.51850  0.05180  0.50900  Biso   1.000  C
  C26      1.0000 0.48150  0.05180  0.99100  Biso   1.000  C
  C27      1.0000 0.01850  0.55180  0.50900  Biso   1.000  C
  C28      1.0000 0.98150  0.55180  0.99100  Biso   1.000  C
  C29      1.0000 0.48150  0.94820  0.49100  Biso   1.000  C
  C30      1.0000 0.51850  0.94820  0.00900  Biso   1.000  C
  C31      1.0000 0.98150  0.44820  0.49100  Biso   1.000  C
  C32      1.0000 0.01850  0.44820  0.00900  Biso   1.000  C
  H9       1.0000 0.56810  0.07730  0.57890  Biso   1.000  H
  H10      1.0000 0.43190  0.07730  0.92110  Biso   1.000  H
  H11      1.0000 0.06810  0.57730  0.57890  Biso   1.000  H
  H12      1.0000 0.93190  0.57730  0.92110  Biso   1.000  H
  H13      1.0000 0.43190  0.92270  0.42110  Biso   1.000  H
  H14      1.0000 0.56810  0.92270  0.07890  Biso   1.000  H
  H15      1.0000 0.93190  0.42270  0.42110  Biso   1.000  H
  H16      1.0000 0.06810  0.42270  0.07890  Biso   1.000  H
  C33      1.0000 0.49040  0.02590  0.48660  Biso   1.000  C
  C34      1.0000 0.50960  0.02590  0.01340  Biso   1.000  C
  C35      1.0000 0.99040  0.52590  0.48660  Biso   1.000  C
  C36      1.0000 0.00960  0.52590  0.01340  Biso   1.000  C
  C37      1.0000 0.50960  0.97410  0.51340  Biso   1.000  C
  C38      1.0000 0.49040  0.97410  0.98660  Biso   1.000  C
  C39      1.0000 0.00960  0.47410  0.51340  Biso   1.000  C
  C40      1.0000 0.99040  0.47410  0.98660  Biso   1.000  C
  C41      1.0000 0.56100  0.06170  0.58440  Biso   1.000  C
  C42      1.0000 0.43900  0.06170  0.91560  Biso   1.000  C
  C43      1.0000 0.06100  0.56170  0.58440  Biso   1.000  C
  C44      1.0000 0.93900  0.56170  0.91560  Biso   1.000  C
  C45      1.0000 0.43900  0.93830  0.41560  Biso   1.000  C
  C46      1.0000 0.56100  0.93830  0.08440  Biso   1.000  C
  C47      1.0000 0.93900  0.43830  0.41560  Biso   1.000  C
  C48      1.0000 0.06100  0.43830  0.08440  Biso   1.000  C
  H17      1.0000 0.56550  0.11760  0.57960  Biso   1.000  H
  H18      1.0000 0.43450  0.11760  0.92040  Biso   1.000  H
  H19      1.0000 0.06550  0.61760  0.57960  Biso   1.000  H
  H20      1.0000 0.93450  0.61760  0.92040  Biso   1.000  H
  H21      1.0000 0.43450  0.88240  0.42040  Biso   1.000  H
  H22      1.0000 0.56550  0.88240  0.07960  Biso   1.000  H
  H23      1.0000 0.93450  0.38240  0.42040  Biso   1.000  H
  H24      1.0000 0.06550  0.38240  0.07960  Biso   1.000  H
  C49      1.0000 0.37410  0.98130  0.30870  Biso   1.000  C
  C50      1.0000 0.62590  0.98130  0.19130  Biso   1.000  C
  C51      1.0000 0.87410  0.48130  0.30870  Biso   1.000  C
  C52      1.0000 0.12590  0.48130  0.19130  Biso   1.000  C
  C53      1.0000 0.62590  0.01870  0.69130  Biso   1.000  C
  C54      1.0000 0.37410  0.01870  0.80870  Biso   1.000  C
  C55      1.0000 0.12590  0.51870  0.69130  Biso   1.000  C
  C56      1.0000 0.87410  0.51870  0.80870  Biso   1.000  C
  H25      1.0000 0.32450  0.95580  0.23840  Biso   1.000  H
  H26      1.0000 0.67550  0.95580  0.26160  Biso   1.000  H
  H27      1.0000 0.82450  0.45580  0.23840  Biso   1.000  H
  H28      1.0000 0.17550  0.45580  0.26160  Biso   1.000  H
  H29      1.0000 0.67550  0.04420  0.76160  Biso   1.000  H
  H30      1.0000 0.32450  0.04420  0.73840  Biso   1.000  H
  H31      1.0000 0.17550  0.54420  0.76160  Biso   1.000  H
  H32      1.0000 0.82450  0.54420  0.73840  Biso   1.000  H
  C57      1.0000 0.36700  0.03700  0.26900  Biso   1.000  C
  C58      1.0000 0.63300  0.03700  0.23100  Biso   1.000  C
  C59      1.0000 0.86700  0.53700  0.26900  Biso   1.000  C
  C60      1.0000 0.13300  0.53700  0.23100  Biso   1.000  C
  C61      1.0000 0.63300  0.96300  0.73100  Biso   1.000  C
  C62      1.0000 0.36700  0.96300  0.76900  Biso   1.000  C
  C63      1.0000 0.13300  0.46300  0.73100  Biso   1.000  C
  C64      1.0000 0.86700  0.46300  0.76900  Biso   1.000  C
  H33      1.0000 0.37940  0.00130  0.19050  Biso   1.000  H
  H34      1.0000 0.62060  0.00130  0.30950  Biso   1.000  H
  H35      1.0000 0.87940  0.50130  0.19050  Biso   1.000  H
  H36      1.0000 0.12060  0.50130  0.30950  Biso   1.000  H
  H37      1.0000 0.62060  0.99870  0.80950  Biso   1.000  H
  H38      1.0000 0.37940  0.99870  0.69050  Biso   1.000  H
  H39      1.0000 0.12060  0.49870  0.80950  Biso   1.000  H
  H40      1.0000 0.87940  0.49870  0.69050  Biso   1.000  H
  H41      1.0000 0.34030  0.00930  0.33630  Biso   1.000  H
  H42      1.0000 0.65970  0.00930  0.16370  Biso   1.000  H
  H43      1.0000 0.84030  0.50930  0.33630  Biso   1.000  H
  H44      1.0000 0.15970  0.50930  0.16370  Biso   1.000  H
  H45      1.0000 0.65970  0.99070  0.66370  Biso   1.000  H
  H46      1.0000 0.34030  0.99070  0.83630  Biso   1.000  H
  H47      1.0000 0.15970  0.49070  0.66370  Biso   1.000  H
  H48      1.0000 0.84030  0.49070  0.83630  Biso   1.000  H
  C65      1.0000 0.30500  0.10110  0.15500  Biso   1.000  C
  C66      1.0000 0.69500  0.10110  0.34500  Biso   1.000  C
  C67      1.0000 0.80500  0.60110  0.15500  Biso   1.000  C
  C68      1.0000 0.19500  0.60110  0.34500  Biso   1.000  C
  C69      1.0000 0.69500  0.89890  0.84500  Biso   1.000  C
  C70      1.0000 0.30500  0.89890  0.65500  Biso   1.000  C
  C71      1.0000 0.19500  0.39890  0.84500  Biso   1.000  C
  C72      1.0000 0.80500  0.39890  0.65500  Biso   1.000  C
  N1       1.0000 0.16060  0.23910  0.09430  Biso   1.000  N
  N2       1.0000 0.83940  0.23910  0.40570  Biso   1.000  N
  N3       1.0000 0.66060  0.73910  0.09430  Biso   1.000  N
  N4       1.0000 0.33940  0.73910  0.40570  Biso   1.000  N
  N5       1.0000 0.83940  0.76090  0.90570  Biso   1.000  N
  N6       1.0000 0.16060  0.76090  0.59430  Biso   1.000  N
  N7       1.0000 0.33940  0.26090  0.90570  Biso   1.000  N
  N8       1.0000 0.66060  0.26090  0.59430  Biso   1.000  N
  C73      1.0000 0.17040  0.25780  0.26210  Biso   1.000  C
  C74      1.0000 0.82960  0.25780  0.23790  Biso   1.000  C
  C75      1.0000 0.67040  0.75780  0.26210  Biso   1.000  C
  C76      1.0000 0.32960  0.75780  0.23790  Biso   1.000  C
  C77      1.0000 0.82960  0.74220  0.73790  Biso   1.000  C
  C78      1.0000 0.17040  0.74220  0.76210  Biso   1.000  C
  C79      1.0000 0.32960  0.24220  0.73790  Biso   1.000  C
  C80      1.0000 0.67040  0.24220  0.76210  Biso   1.000  C
  H49      1.0000 0.22140  0.27330  0.33920  Biso   1.000  H
  H50      1.0000 0.77860  0.27330  0.16080  Biso   1.000  H
  H51      1.0000 0.72140  0.77330  0.33920  Biso   1.000  H
  H52      1.0000 0.27860  0.77330  0.16080  Biso   1.000  H
  H53      1.0000 0.77860  0.72670  0.66080  Biso   1.000  H
  H54      1.0000 0.22140  0.72670  0.83920  Biso   1.000  H
  H55      1.0000 0.27860  0.22670  0.66080  Biso   1.000  H
  H56      1.0000 0.72140  0.22670  0.83920  Biso   1.000  H
  C81      1.0000 0.10940  0.25570  0.33070  Biso   1.000  C
  C82      1.0000 0.89060  0.25570  0.16930  Biso   1.000  C
  C83      1.0000 0.60940  0.75570  0.33070  Biso   1.000  C
  C84      1.0000 0.39060  0.75570  0.16930  Biso   1.000  C
  C85      1.0000 0.89060  0.74430  0.66930  Biso   1.000  C
  C86      1.0000 0.10940  0.74430  0.83070  Biso   1.000  C
  C87      1.0000 0.39060  0.24430  0.66930  Biso   1.000  C
  C88      1.0000 0.60940  0.24430  0.83070  Biso   1.000  C
  H57      1.0000 0.11960  0.26960  0.45040  Biso   1.000  H
  H58      1.0000 0.88040  0.26960  0.04960  Biso   1.000  H
  H59      1.0000 0.61960  0.76960  0.45040  Biso   1.000  H
  H60      1.0000 0.38040  0.76960  0.04960  Biso   1.000  H
  H61      1.0000 0.88040  0.73040  0.54960  Biso   1.000  H
  H62      1.0000 0.11960  0.73040  0.95040  Biso   1.000  H
  H63      1.0000 0.38040  0.23040  0.54960  Biso   1.000  H
  H64      1.0000 0.61960  0.23040  0.95040  Biso   1.000  H
  C89      1.0000 0.03420  0.23280  0.21960  Biso   1.000  C
  C90      1.0000 0.96580  0.23280  0.28040  Biso   1.000  C
  C91      1.0000 0.53420  0.73280  0.21960  Biso   1.000  C
  C92      1.0000 0.46580  0.73280  0.28040  Biso   1.000  C
  C93      1.0000 0.96580  0.76720  0.78040  Biso   1.000  C
  C94      1.0000 0.03420  0.76720  0.71960  Biso   1.000  C
  C95      1.0000 0.46580  0.26720  0.78040  Biso   1.000  C
  C96      1.0000 0.53420  0.26720  0.71960  Biso   1.000  C
  C97      1.0000 0.02430  0.21230  0.04400  Biso   1.000  C
  C98      1.0000 0.97570  0.21230  0.45600  Biso   1.000  C
  C99      1.0000 0.52430  0.71230  0.04400  Biso   1.000  C
  C100     1.0000 0.47570  0.71230  0.45600  Biso   1.000  C
  C101     1.0000 0.97570  0.78770  0.95600  Biso   1.000  C
  C102     1.0000 0.02430  0.78770  0.54400  Biso   1.000  C
  C103     1.0000 0.47570  0.28770  0.95600  Biso   1.000  C
  C104     1.0000 0.52430  0.28770  0.54400  Biso   1.000  C
  H65      1.0000 0.97440  0.19560  0.96360  Biso   1.000  H
  H66      1.0000 0.02560  0.19560  0.53640  Biso   1.000  H
  H67      1.0000 0.47440  0.69560  0.96360  Biso   1.000  H
  H68      1.0000 0.52560  0.69560  0.53640  Biso   1.000  H
  H69      1.0000 0.02560  0.80440  0.03640  Biso   1.000  H
  H70      1.0000 0.97440  0.80440  0.46360  Biso   1.000  H
  H71      1.0000 0.52560  0.30440  0.03640  Biso   1.000  H
  H72      1.0000 0.47440  0.30440  0.46360  Biso   1.000  H
  C105     1.0000 0.08890  0.21700  0.98920  Biso   1.000  C
  C106     1.0000 0.91110  0.21700  0.51080  Biso   1.000  C
  C107     1.0000 0.58890  0.71700  0.98920  Biso   1.000  C
  C108     1.0000 0.41110  0.71700  0.51080  Biso   1.000  C
  C109     1.0000 0.91110  0.78300  0.01080  Biso   1.000  C
  C110     1.0000 0.08890  0.78300  0.48920  Biso   1.000  C
  C111     1.0000 0.41110  0.28300  0.01080  Biso   1.000  C
  C112     1.0000 0.58890  0.28300  0.48920  Biso   1.000  C
  H73      1.0000 0.08080  0.20360  0.87020  Biso   1.000  H
  H74      1.0000 0.91920  0.20360  0.62980  Biso   1.000  H
  H75      1.0000 0.58080  0.70360  0.87020  Biso   1.000  H
  H76      1.0000 0.41920  0.70360  0.62980  Biso   1.000  H
  H77      1.0000 0.91920  0.79640  0.12980  Biso   1.000  H
  H78      1.0000 0.08080  0.79640  0.37020  Biso   1.000  H
  H79      1.0000 0.41920  0.29640  0.12980  Biso   1.000  H
  H80      1.0000 0.58080  0.29640  0.37020  Biso   1.000  H
  O41      1.0000 0.17000  0.13930  0.72590  Biso   1.000  O
  O42      1.0000 0.83000  0.13930  0.77410  Biso   1.000  O
  O43      1.0000 0.67000  0.63930  0.72590  Biso   1.000  O
  O44      1.0000 0.33000  0.63930  0.77410  Biso   1.000  O
  O45      1.0000 0.83000  0.86070  0.27410  Biso   1.000  O
  O46      1.0000 0.17000  0.86070  0.22590  Biso   1.000  O
  O47      1.0000 0.33000  0.36070  0.27410  Biso   1.000  O
  O48      1.0000 0.67000  0.36070  0.22590  Biso   1.000  O
  O49      1.0000 0.18850  0.06820  0.42970  Biso   1.000  O
  O50      1.0000 0.81150  0.06820  0.07030  Biso   1.000  O
  O51      1.0000 0.68850  0.56820  0.42970  Biso   1.000  O
  O52      1.0000 0.31150  0.56820  0.07030  Biso   1.000  O
  O53      1.0000 0.81150  0.93180  0.57030  Biso   1.000  O
  O54      1.0000 0.18850  0.93180  0.92970  Biso   1.000  O
  O55      1.0000 0.31150  0.43180  0.57030  Biso   1.000  O
  O56      1.0000 0.68850  0.43180  0.92970  Biso   1.000  O
  O57      1.0000 0.00000  0.99700  0.25000  Biso   1.000  O
  O58      1.0000 0.50000  0.49700  0.25000  Biso   1.000  O
  O59      1.0000 0.00000  0.00300  0.75000  Biso   1.000  O
  O60      1.0000 0.50000  0.50300  0.75000  Biso   1.000  O
  O61      1.0000 0.03700  0.00300  0.12600  Biso   1.000  O
  O62      1.0000 0.96300  0.00300  0.37400  Biso   1.000  O
  O63      1.0000 0.53700  0.50300  0.12600  Biso   1.000  O
  O64      1.0000 0.46300  0.50300  0.37400  Biso   1.000  O
  O65      1.0000 0.96300  0.99700  0.87400  Biso   1.000  O
  O66      1.0000 0.03700  0.99700  0.62600  Biso   1.000  O
  O67      1.0000 0.46300  0.49700  0.87400  Biso   1.000  O
  O68      1.0000 0.53700  0.49700  0.62600  Biso   1.000  O
