data_image0
_cell_length_a       13.454
_cell_length_b       13.454
_cell_length_c       14.856
_cell_angle_alpha    90
_cell_angle_beta     90
_cell_angle_gamma    120

_symmetry_space_group_name_H-M    "P 1"
_symmetry_int_tables_number       1

loop_
  _symmetry_equiv_pos_as_xyz
  'x, y, z'

loop_
  _atom_site_label
  _atom_site_occupancy
  _atom_site_fract_x
  _atom_site_fract_y
  _atom_site_fract_z
  _atom_site_thermal_displace_type
  _atom_site_B_iso_or_equiv
  _atom_site_type_symbol
  Cu1      1.0000 0.50000  0.00000  0.00000  Biso   1.000  Cu
  Cu2      1.0000 0.00000  0.50000  0.00000  Biso   1.000  Cu
  Cu3      1.0000 0.00000  0.50000  0.50000  Biso   1.000  Cu
  Cu4      1.0000 0.50000  0.50000  0.00000  Biso   1.000  Cu
  Cu5      1.0000 0.50000  0.50000  0.50000  Biso   1.000  Cu
  Cu6      1.0000 0.50000  0.00000  0.50000  Biso   1.000  Cu
  Sm1      1.0000 0.33330  0.66670  0.33075  Biso   1.000  Sm
  Sm2      1.0000 0.66670  0.33330  0.16925  Biso   1.000  Sm
  Sm3      1.0000 0.66670  0.33330  0.66925  Biso   1.000  Sm
  Sm4      1.0000 0.33330  0.66670  0.83075  Biso   1.000  Sm
  O1       1.0000 0.40250  0.92650  0.10497  Biso   1.000  O
  O2       1.0000 0.07350  0.47600  0.10497  Biso   1.000  O
  O3       1.0000 0.92650  0.40250  0.39503  Biso   1.000  O
  O4       1.0000 0.52400  0.59750  0.10497  Biso   1.000  O
  O5       1.0000 0.59750  0.52400  0.39503  Biso   1.000  O
  O6       1.0000 0.47600  0.07350  0.39503  Biso   1.000  O
  O7       1.0000 0.59750  0.07350  0.89503  Biso   1.000  O
  O8       1.0000 0.92650  0.52400  0.89503  Biso   1.000  O
  O9       1.0000 0.07350  0.59750  0.60497  Biso   1.000  O
  O10      1.0000 0.47600  0.40250  0.89503  Biso   1.000  O
  O11      1.0000 0.40250  0.47600  0.60497  Biso   1.000  O
  O12      1.0000 0.52400  0.92650  0.60497  Biso   1.000  O
  O13      1.0000 0.38530  0.82170  0.22490  Biso   1.000  O
  O14      1.0000 0.17830  0.56360  0.22490  Biso   1.000  O
  O15      1.0000 0.82170  0.38530  0.27510  Biso   1.000  O
  O16      1.0000 0.43640  0.61470  0.22490  Biso   1.000  O
  O17      1.0000 0.61470  0.43640  0.27510  Biso   1.000  O
  O18      1.0000 0.56360  0.17830  0.27510  Biso   1.000  O
  O19      1.0000 0.61470  0.17830  0.77510  Biso   1.000  O
  O20      1.0000 0.82170  0.43640  0.77510  Biso   1.000  O
  O21      1.0000 0.17830  0.61470  0.72490  Biso   1.000  O
  O22      1.0000 0.56360  0.38530  0.77510  Biso   1.000  O
  O23      1.0000 0.38530  0.56360  0.72490  Biso   1.000  O
  O24      1.0000 0.43640  0.82170  0.72490  Biso   1.000  O
  O25      1.0000 0.45300  0.81610  0.94322  Biso   1.000  O
  O26      1.0000 0.18390  0.63690  0.94322  Biso   1.000  O
  O27      1.0000 0.81610  0.45300  0.55678  Biso   1.000  O
  O28      1.0000 0.36310  0.54700  0.94322  Biso   1.000  O
  O29      1.0000 0.54700  0.36310  0.55678  Biso   1.000  O
  O30      1.0000 0.63690  0.18390  0.55678  Biso   1.000  O
  O31      1.0000 0.54700  0.18390  0.05678  Biso   1.000  O
  O32      1.0000 0.81610  0.36310  0.05678  Biso   1.000  O
  O33      1.0000 0.18390  0.54700  0.44322  Biso   1.000  O
  O34      1.0000 0.63690  0.45300  0.05678  Biso   1.000  O
  O35      1.0000 0.45300  0.63690  0.44322  Biso   1.000  O
  O36      1.0000 0.36310  0.81610  0.44322  Biso   1.000  O
  O37      1.0000 0.56190  0.75820  0.87660  Biso   1.000  O
  O38      1.0000 0.24180  0.80370  0.87660  Biso   1.000  O
  O39      1.0000 0.75820  0.56190  0.62340  Biso   1.000  O
  O40      1.0000 0.19630  0.43810  0.87660  Biso   1.000  O
  O41      1.0000 0.43810  0.19630  0.62340  Biso   1.000  O
  O42      1.0000 0.80370  0.24180  0.62340  Biso   1.000  O
  O43      1.0000 0.43810  0.24180  0.12340  Biso   1.000  O
  O44      1.0000 0.75820  0.19630  0.12340  Biso   1.000  O
  O45      1.0000 0.24180  0.43810  0.37660  Biso   1.000  O
  O46      1.0000 0.80370  0.56190  0.12340  Biso   1.000  O
  O47      1.0000 0.56190  0.80370  0.37660  Biso   1.000  O
  O48      1.0000 0.19630  0.75820  0.37660  Biso   1.000  O
  N1       1.0000 0.61120  0.95980  0.05788  Biso   1.000  N
  N2       1.0000 0.04020  0.65140  0.05788  Biso   1.000  N
  N3       1.0000 0.95980  0.61120  0.44212  Biso   1.000  N
  N4       1.0000 0.34860  0.38880  0.05788  Biso   1.000  N
  N5       1.0000 0.38880  0.34860  0.44212  Biso   1.000  N
  N6       1.0000 0.65140  0.04020  0.44212  Biso   1.000  N
  N7       1.0000 0.38880  0.04020  0.94212  Biso   1.000  N
  N8       1.0000 0.95980  0.34860  0.94212  Biso   1.000  N
  N9       1.0000 0.04020  0.38880  0.55788  Biso   1.000  N
  N10      1.0000 0.65140  0.61120  0.94212  Biso   1.000  N
  N11      1.0000 0.61120  0.65140  0.55788  Biso   1.000  N
  N12      1.0000 0.34860  0.95980  0.55788  Biso   1.000  N
  H1       1.0000 0.67400  0.02570  0.07650  Biso   1.000  H
  H2       1.0000 0.97430  0.64830  0.07650  Biso   1.000  H
  H3       1.0000 0.02570  0.67400  0.42350  Biso   1.000  H
  H4       1.0000 0.35170  0.32600  0.07650  Biso   1.000  H
  H5       1.0000 0.32600  0.35170  0.42350  Biso   1.000  H
  H6       1.0000 0.64830  0.97430  0.42350  Biso   1.000  H
  H7       1.0000 0.32600  0.97430  0.92350  Biso   1.000  H
  H8       1.0000 0.02570  0.35170  0.92350  Biso   1.000  H
  H9       1.0000 0.97430  0.32600  0.57650  Biso   1.000  H
  H10      1.0000 0.64830  0.67400  0.92350  Biso   1.000  H
  H11      1.0000 0.67400  0.64830  0.57650  Biso   1.000  H
  H12      1.0000 0.35170  0.02570  0.57650  Biso   1.000  H
  C1       1.0000 0.43950  0.87800  0.15720  Biso   1.000  C
  C2       1.0000 0.12200  0.56150  0.15720  Biso   1.000  C
  C3       1.0000 0.87800  0.43950  0.34280  Biso   1.000  C
  C4       1.0000 0.43850  0.56050  0.15720  Biso   1.000  C
  C5       1.0000 0.56050  0.43850  0.34280  Biso   1.000  C
  C6       1.0000 0.56150  0.12200  0.34280  Biso   1.000  C
  C7       1.0000 0.56050  0.12200  0.84280  Biso   1.000  C
  C8       1.0000 0.87800  0.43850  0.84280  Biso   1.000  C
  C9       1.0000 0.12200  0.56050  0.65720  Biso   1.000  C
  C10      1.0000 0.56150  0.43950  0.84280  Biso   1.000  C
  C11      1.0000 0.43950  0.56150  0.65720  Biso   1.000  C
  C12      1.0000 0.43850  0.87800  0.65720  Biso   1.000  C
  C13      1.0000 0.55390  0.88780  0.13770  Biso   1.000  C
  C14      1.0000 0.11220  0.66610  0.13770  Biso   1.000  C
  C15      1.0000 0.88780  0.55390  0.36230  Biso   1.000  C
  C16      1.0000 0.33390  0.44610  0.13770  Biso   1.000  C
  C17      1.0000 0.44610  0.33390  0.36230  Biso   1.000  C
  C18      1.0000 0.66610  0.11220  0.36230  Biso   1.000  C
  C19      1.0000 0.44610  0.11220  0.86230  Biso   1.000  C
  C20      1.0000 0.88780  0.33390  0.86230  Biso   1.000  C
  C21      1.0000 0.11220  0.44610  0.63770  Biso   1.000  C
  C22      1.0000 0.66610  0.55390  0.86230  Biso   1.000  C
  C23      1.0000 0.55390  0.66610  0.63770  Biso   1.000  C
  C24      1.0000 0.33390  0.88780  0.63770  Biso   1.000  C
  H13      1.0000 0.54290  0.81160  0.12800  Biso   1.000  H
  H14      1.0000 0.18840  0.73130  0.12800  Biso   1.000  H
  H15      1.0000 0.81160  0.54290  0.37200  Biso   1.000  H
  H16      1.0000 0.26870  0.45710  0.12800  Biso   1.000  H
  H17      1.0000 0.45710  0.26870  0.37200  Biso   1.000  H
  H18      1.0000 0.73130  0.18840  0.37200  Biso   1.000  H
  H19      1.0000 0.45710  0.18840  0.87200  Biso   1.000  H
  H20      1.0000 0.81160  0.26870  0.87200  Biso   1.000  H
  H21      1.0000 0.18840  0.45710  0.62800  Biso   1.000  H
  H22      1.0000 0.73130  0.54290  0.87200  Biso   1.000  H
  H23      1.0000 0.54290  0.73130  0.62800  Biso   1.000  H
  H24      1.0000 0.26870  0.81160  0.62800  Biso   1.000  H
  H25      1.0000 0.60340  0.92050  0.18970  Biso   1.000  H
  H26      1.0000 0.07950  0.68290  0.18970  Biso   1.000  H
  H27      1.0000 0.92050  0.60340  0.31030  Biso   1.000  H
  H28      1.0000 0.31710  0.39660  0.18970  Biso   1.000  H
  H29      1.0000 0.39660  0.31710  0.31030  Biso   1.000  H
  H30      1.0000 0.68290  0.07950  0.31030  Biso   1.000  H
  H31      1.0000 0.39660  0.07950  0.81030  Biso   1.000  H
  H32      1.0000 0.92050  0.31710  0.81030  Biso   1.000  H
  H33      1.0000 0.07950  0.39660  0.68970  Biso   1.000  H
  H34      1.0000 0.68290  0.60340  0.81030  Biso   1.000  H
  H35      1.0000 0.60340  0.68290  0.68970  Biso   1.000  H
  H36      1.0000 0.31710  0.92050  0.68970  Biso   1.000  H
  C25      1.0000 0.64800  0.90330  0.99030  Biso   1.000  C
  C26      1.0000 0.09670  0.74470  0.99030  Biso   1.000  C
  C27      1.0000 0.90330  0.64800  0.50970  Biso   1.000  C
  C28      1.0000 0.25530  0.35200  0.99030  Biso   1.000  C
  C29      1.0000 0.35200  0.25530  0.50970  Biso   1.000  C
  C30      1.0000 0.74470  0.09670  0.50970  Biso   1.000  C
  C31      1.0000 0.35200  0.09670  0.00970  Biso   1.000  C
  C32      1.0000 0.90330  0.25530  0.00970  Biso   1.000  C
  C33      1.0000 0.09670  0.35200  0.49030  Biso   1.000  C
  C34      1.0000 0.74470  0.64800  0.00970  Biso   1.000  C
  C35      1.0000 0.64800  0.74470  0.49030  Biso   1.000  C
  C36      1.0000 0.25530  0.90330  0.49030  Biso   1.000  C
  H37      1.0000 0.70680  0.96110  0.95200  Biso   1.000  H
  H38      1.0000 0.03890  0.74570  0.95200  Biso   1.000  H
  H39      1.0000 0.96110  0.70680  0.54800  Biso   1.000  H
  H40      1.0000 0.25430  0.29320  0.95200  Biso   1.000  H
  H41      1.0000 0.29320  0.25430  0.54800  Biso   1.000  H
  H42      1.0000 0.74570  0.03890  0.54800  Biso   1.000  H
  H43      1.0000 0.29320  0.03890  0.04800  Biso   1.000  H
  H44      1.0000 0.96110  0.25430  0.04800  Biso   1.000  H
  H45      1.0000 0.03890  0.29320  0.45200  Biso   1.000  H
  H46      1.0000 0.74570  0.70680  0.04800  Biso   1.000  H
  H47      1.0000 0.70680  0.74570  0.45200  Biso   1.000  H
  H48      1.0000 0.25430  0.96110  0.45200  Biso   1.000  H
  H49      1.0000 0.68070  0.86260  0.02100  Biso   1.000  H
  H50      1.0000 0.13740  0.81810  0.02100  Biso   1.000  H
  H51      1.0000 0.86260  0.68070  0.47900  Biso   1.000  H
  H52      1.0000 0.18190  0.31930  0.02100  Biso   1.000  H
  H53      1.0000 0.31930  0.18190  0.47900  Biso   1.000  H
  H54      1.0000 0.81810  0.13740  0.47900  Biso   1.000  H
  H55      1.0000 0.31930  0.13740  0.97900  Biso   1.000  H
  H56      1.0000 0.86260  0.18190  0.97900  Biso   1.000  H
  H57      1.0000 0.13740  0.31930  0.52100  Biso   1.000  H
  H58      1.0000 0.81810  0.68070  0.97900  Biso   1.000  H
  H59      1.0000 0.68070  0.81810  0.52100  Biso   1.000  H
  H60      1.0000 0.18190  0.86260  0.52100  Biso   1.000  H
  C37      1.0000 0.54800  0.81980  0.93320  Biso   1.000  C
  C38      1.0000 0.18020  0.72820  0.93320  Biso   1.000  C
  C39      1.0000 0.81980  0.54800  0.56680  Biso   1.000  C
  C40      1.0000 0.27180  0.45200  0.93320  Biso   1.000  C
  C41      1.0000 0.45200  0.27180  0.56680  Biso   1.000  C
  C42      1.0000 0.72820  0.18020  0.56680  Biso   1.000  C
  C43      1.0000 0.45200  0.18020  0.06680  Biso   1.000  C
  C44      1.0000 0.81980  0.27180  0.06680  Biso   1.000  C
  C45      1.0000 0.18020  0.45200  0.43320  Biso   1.000  C
  C46      1.0000 0.72820  0.54800  0.06680  Biso   1.000  C
  C47      1.0000 0.54800  0.72820  0.43320  Biso   1.000  C
  C48      1.0000 0.27180  0.81980  0.43320  Biso   1.000  C
  O49      1.0000 0.27960  0.27960  0.75000  Biso   1.000  O
  O50      1.0000 0.72040  0.00000  0.75000  Biso   1.000  O
  O51      1.0000 0.00000  0.72040  0.75000  Biso   1.000  O
  O52      1.0000 0.72040  0.72040  0.25000  Biso   1.000  O
  O53      1.0000 0.27960  0.00000  0.25000  Biso   1.000  O
  O54      1.0000 0.00000  0.27960  0.25000  Biso   1.000  O
  O55      1.0000 0.18330  0.03210  0.66600  Biso   1.000  O
  O56      1.0000 0.96790  0.15120  0.66600  Biso   1.000  O
  O57      1.0000 0.03210  0.18330  0.83400  Biso   1.000  O
  O58      1.0000 0.84880  0.81670  0.66600  Biso   1.000  O
  O59      1.0000 0.81670  0.84880  0.83400  Biso   1.000  O
  O60      1.0000 0.15120  0.96790  0.83400  Biso   1.000  O
  O61      1.0000 0.81670  0.96790  0.33400  Biso   1.000  O
  O62      1.0000 0.03210  0.84880  0.33400  Biso   1.000  O
  O63      1.0000 0.96790  0.81670  0.16600  Biso   1.000  O
  O64      1.0000 0.15120  0.18330  0.33400  Biso   1.000  O
  O65      1.0000 0.18330  0.15120  0.16600  Biso   1.000  O
  O66      1.0000 0.84880  0.03210  0.16600  Biso   1.000  O
