data_image0
_cell_length_a       18.2056
_cell_length_b       18.2056
_cell_length_c       40.6655
_cell_angle_alpha    90
_cell_angle_beta     90
_cell_angle_gamma    120

_symmetry_space_group_name_H-M    "P 1"
_symmetry_int_tables_number       1

loop_
  _symmetry_equiv_pos_as_xyz
  'x, y, z'

loop_
  _atom_site_label
  _atom_site_occupancy
  _atom_site_fract_x
  _atom_site_fract_y
  _atom_site_fract_z
  _atom_site_thermal_displace_type
  _atom_site_B_iso_or_equiv
  _atom_site_type_symbol
  Cu1      1.0000 0.52514  0.47486  0.47460  Biso   1.000  Cu
  Cu2      1.0000 0.05029  0.52514  0.97460  Biso   1.000  Cu
  Cu3      1.0000 0.52514  0.05029  0.47460  Biso   1.000  Cu
  Cu4      1.0000 0.47485  0.52514  0.97460  Biso   1.000  Cu
  Cu5      1.0000 0.94971  0.47486  0.47460  Biso   1.000  Cu
  Cu6      1.0000 0.47486  0.94971  0.97460  Biso   1.000  Cu
  Cu7      1.0000 0.05029  0.52514  0.52540  Biso   1.000  Cu
  Cu8      1.0000 0.52514  0.47486  0.02540  Biso   1.000  Cu
  Cu9      1.0000 0.47486  0.94971  0.52540  Biso   1.000  Cu
  Cu10     1.0000 0.94971  0.47486  0.02540  Biso   1.000  Cu
  Cu11     1.0000 0.47485  0.52514  0.52540  Biso   1.000  Cu
  Cu12     1.0000 0.52514  0.05029  0.02540  Biso   1.000  Cu
  Cu13     1.0000 0.05828  0.11655  0.75000  Biso   1.000  Cu
  Cu14     1.0000 0.94173  0.05828  0.25000  Biso   1.000  Cu
  Cu15     1.0000 0.88345  0.94173  0.75000  Biso   1.000  Cu
  Cu16     1.0000 0.94172  0.88345  0.25000  Biso   1.000  Cu
  Cu17     1.0000 0.05827  0.94172  0.75000  Biso   1.000  Cu
  Cu18     1.0000 0.11655  0.05827  0.25000  Biso   1.000  Cu
  O1       1.0000 0.57229  0.42771  0.43457  Biso   1.000  O
  O2       1.0000 0.14458  0.57229  0.93457  Biso   1.000  O
  O3       1.0000 0.57229  0.14458  0.43457  Biso   1.000  O
  O4       1.0000 0.42771  0.57229  0.93457  Biso   1.000  O
  O5       1.0000 0.85542  0.42771  0.43457  Biso   1.000  O
  O6       1.0000 0.42771  0.85542  0.93457  Biso   1.000  O
  O7       1.0000 0.14458  0.57229  0.56543  Biso   1.000  O
  O8       1.0000 0.57229  0.42771  0.06543  Biso   1.000  O
  O9       1.0000 0.42771  0.85542  0.56543  Biso   1.000  O
  O10      1.0000 0.85542  0.42771  0.06543  Biso   1.000  O
  O11      1.0000 0.42771  0.57229  0.56543  Biso   1.000  O
  O12      1.0000 0.57229  0.14458  0.06543  Biso   1.000  O
  O13      1.0000 0.48013  0.37055  0.50014  Biso   1.000  O
  O14      1.0000 0.10958  0.48013  0.00014  Biso   1.000  O
  O15      1.0000 0.62945  0.10958  0.50014  Biso   1.000  O
  O16      1.0000 0.51987  0.62945  0.00014  Biso   1.000  O
  O17      1.0000 0.89042  0.51987  0.50014  Biso   1.000  O
  O18      1.0000 0.37055  0.89042  0.00014  Biso   1.000  O
  O19      1.0000 0.10958  0.62945  0.49986  Biso   1.000  O
  O20      1.0000 0.62945  0.51987  0.99986  Biso   1.000  O
  O21      1.0000 0.51987  0.89042  0.49986  Biso   1.000  O
  O22      1.0000 0.89042  0.37055  0.99986  Biso   1.000  O
  O23      1.0000 0.37055  0.48013  0.49986  Biso   1.000  O
  O24      1.0000 0.48013  0.10958  0.99986  Biso   1.000  O
  O25      1.0000 0.51987  0.62945  0.49986  Biso   1.000  O
  O26      1.0000 0.89042  0.51987  0.99986  Biso   1.000  O
  O27      1.0000 0.37055  0.89042  0.49986  Biso   1.000  O
  O28      1.0000 0.48013  0.37055  0.99986  Biso   1.000  O
  O29      1.0000 0.10958  0.48013  0.49986  Biso   1.000  O
  O30      1.0000 0.62945  0.10958  0.99986  Biso   1.000  O
  O31      1.0000 0.89042  0.37055  0.50014  Biso   1.000  O
  O32      1.0000 0.37055  0.48013  0.00014  Biso   1.000  O
  O33      1.0000 0.48013  0.10958  0.50014  Biso   1.000  O
  O34      1.0000 0.10958  0.62945  0.00014  Biso   1.000  O
  O35      1.0000 0.62945  0.51987  0.50014  Biso   1.000  O
  O36      1.0000 0.51987  0.89042  0.00014  Biso   1.000  O
  O37      1.0000 0.43561  0.41307  0.54380  Biso   1.000  O
  O38      1.0000 0.02254  0.43561  0.04380  Biso   1.000  O
  O39      1.0000 0.58693  0.02254  0.54380  Biso   1.000  O
  O40      1.0000 0.56439  0.58693  0.04380  Biso   1.000  O
  O41      1.0000 0.97746  0.56439  0.54380  Biso   1.000  O
  O42      1.0000 0.41307  0.97746  0.04380  Biso   1.000  O
  O43      1.0000 0.02254  0.58693  0.45620  Biso   1.000  O
  O44      1.0000 0.58693  0.56439  0.95620  Biso   1.000  O
  O45      1.0000 0.56439  0.97746  0.45620  Biso   1.000  O
  O46      1.0000 0.97746  0.41307  0.95620  Biso   1.000  O
  O47      1.0000 0.41307  0.43561  0.45620  Biso   1.000  O
  O48      1.0000 0.43561  0.02254  0.95620  Biso   1.000  O
  O49      1.0000 0.56439  0.58693  0.45620  Biso   1.000  O
  O50      1.0000 0.97746  0.56439  0.95620  Biso   1.000  O
  O51      1.0000 0.41307  0.97746  0.45620  Biso   1.000  O
  O52      1.0000 0.43561  0.41307  0.95620  Biso   1.000  O
  O53      1.0000 0.02254  0.43561  0.45620  Biso   1.000  O
  O54      1.0000 0.58693  0.02254  0.95620  Biso   1.000  O
  O55      1.0000 0.97746  0.41307  0.54380  Biso   1.000  O
  O56      1.0000 0.41307  0.43561  0.04380  Biso   1.000  O
  O57      1.0000 0.43561  0.02254  0.54380  Biso   1.000  O
  O58      1.0000 0.02254  0.58693  0.04380  Biso   1.000  O
  O59      1.0000 0.58693  0.56439  0.54380  Biso   1.000  O
  O60      1.0000 0.56439  0.97746  0.04380  Biso   1.000  O
  O61      1.0000 0.13390  0.12510  0.71712  Biso   1.000  O
  O62      1.0000 0.00880  0.13390  0.21712  Biso   1.000  O
  O63      1.0000 0.87490  0.00880  0.71712  Biso   1.000  O
  O64      1.0000 0.86610  0.87490  0.21712  Biso   1.000  O
  O65      1.0000 0.99120  0.86610  0.71712  Biso   1.000  O
  O66      1.0000 0.12510  0.99120  0.21712  Biso   1.000  O
  O67      1.0000 0.00880  0.87490  0.28288  Biso   1.000  O
  O68      1.0000 0.87490  0.86610  0.78288  Biso   1.000  O
  O69      1.0000 0.86610  0.99120  0.28288  Biso   1.000  O
  O70      1.0000 0.99120  0.12510  0.78288  Biso   1.000  O
  O71      1.0000 0.12510  0.13390  0.28288  Biso   1.000  O
  O72      1.0000 0.13390  0.00880  0.78288  Biso   1.000  O
  O73      1.0000 0.86610  0.87490  0.28288  Biso   1.000  O
  O74      1.0000 0.99120  0.86610  0.78288  Biso   1.000  O
  O75      1.0000 0.12510  0.99120  0.28288  Biso   1.000  O
  O76      1.0000 0.13390  0.12510  0.78288  Biso   1.000  O
  O77      1.0000 0.00880  0.13390  0.28288  Biso   1.000  O
  O78      1.0000 0.87490  0.00880  0.78288  Biso   1.000  O
  O79      1.0000 0.99120  0.12510  0.71712  Biso   1.000  O
  O80      1.0000 0.12510  0.13390  0.21712  Biso   1.000  O
  O81      1.0000 0.13390  0.00880  0.71712  Biso   1.000  O
  O82      1.0000 0.00880  0.87490  0.21712  Biso   1.000  O
  O83      1.0000 0.87490  0.86610  0.71712  Biso   1.000  O
  O84      1.0000 0.86610  0.99120  0.21712  Biso   1.000  O
  C1       1.0000 0.44690  0.35960  0.52825  Biso   1.000  C
  C2       1.0000 0.08730  0.44690  0.02825  Biso   1.000  C
  C3       1.0000 0.64040  0.08730  0.52825  Biso   1.000  C
  C4       1.0000 0.55310  0.64040  0.02825  Biso   1.000  C
  C5       1.0000 0.91270  0.55310  0.52825  Biso   1.000  C
  C6       1.0000 0.35960  0.91270  0.02825  Biso   1.000  C
  C7       1.0000 0.08730  0.64040  0.47175  Biso   1.000  C
  C8       1.0000 0.64040  0.55310  0.97175  Biso   1.000  C
  C9       1.0000 0.55310  0.91270  0.47175  Biso   1.000  C
  C10      1.0000 0.91270  0.35960  0.97175  Biso   1.000  C
  C11      1.0000 0.35960  0.44690  0.47175  Biso   1.000  C
  C12      1.0000 0.44690  0.08730  0.97175  Biso   1.000  C
  C13      1.0000 0.55310  0.64040  0.47175  Biso   1.000  C
  C14      1.0000 0.91270  0.55310  0.97175  Biso   1.000  C
  C15      1.0000 0.35960  0.91270  0.47175  Biso   1.000  C
  C16      1.0000 0.44690  0.35960  0.97175  Biso   1.000  C
  C17      1.0000 0.08730  0.44690  0.47175  Biso   1.000  C
  C18      1.0000 0.64040  0.08730  0.97175  Biso   1.000  C
  C19      1.0000 0.91270  0.35960  0.52825  Biso   1.000  C
  C20      1.0000 0.35960  0.44690  0.02825  Biso   1.000  C
  C21      1.0000 0.44690  0.08730  0.52825  Biso   1.000  C
  C22      1.0000 0.08730  0.64040  0.02825  Biso   1.000  C
  C23      1.0000 0.64040  0.55310  0.52825  Biso   1.000  C
  C24      1.0000 0.55310  0.91270  0.02825  Biso   1.000  C
  C25      1.0000 0.42040  0.27600  0.54425  Biso   1.000  C
  C26      1.0000 0.14440  0.42040  0.04425  Biso   1.000  C
  C27      1.0000 0.72400  0.14440  0.54425  Biso   1.000  C
  C28      1.0000 0.57960  0.72400  0.04425  Biso   1.000  C
  C29      1.0000 0.85560  0.57960  0.54425  Biso   1.000  C
  C30      1.0000 0.27600  0.85560  0.04425  Biso   1.000  C
  C31      1.0000 0.14440  0.72400  0.45575  Biso   1.000  C
  C32      1.0000 0.72400  0.57960  0.95575  Biso   1.000  C
  C33      1.0000 0.57960  0.85560  0.45575  Biso   1.000  C
  C34      1.0000 0.85560  0.27600  0.95575  Biso   1.000  C
  C35      1.0000 0.27600  0.42040  0.45575  Biso   1.000  C
  C36      1.0000 0.42040  0.14440  0.95575  Biso   1.000  C
  C37      1.0000 0.57960  0.72400  0.45575  Biso   1.000  C
  C38      1.0000 0.85560  0.57960  0.95575  Biso   1.000  C
  C39      1.0000 0.27600  0.85560  0.45575  Biso   1.000  C
  C40      1.0000 0.42040  0.27600  0.95575  Biso   1.000  C
  C41      1.0000 0.14440  0.42040  0.45575  Biso   1.000  C
  C42      1.0000 0.72400  0.14440  0.95575  Biso   1.000  C
  C43      1.0000 0.85560  0.27600  0.54425  Biso   1.000  C
  C44      1.0000 0.27600  0.42040  0.04425  Biso   1.000  C
  C45      1.0000 0.42040  0.14440  0.54425  Biso   1.000  C
  C46      1.0000 0.14440  0.72400  0.04425  Biso   1.000  C
  C47      1.0000 0.72400  0.57960  0.54425  Biso   1.000  C
  C48      1.0000 0.57960  0.85560  0.04425  Biso   1.000  C
  C49      1.0000 0.37730  0.25500  0.57387  Biso   1.000  C
  C50      1.0000 0.12230  0.37730  0.07387  Biso   1.000  C
  C51      1.0000 0.74500  0.12230  0.57387  Biso   1.000  C
  C52      1.0000 0.62270  0.74500  0.07387  Biso   1.000  C
  C53      1.0000 0.87770  0.62270  0.57387  Biso   1.000  C
  C54      1.0000 0.25500  0.87770  0.07387  Biso   1.000  C
  C55      1.0000 0.12230  0.74500  0.42613  Biso   1.000  C
  C56      1.0000 0.74500  0.62270  0.92613  Biso   1.000  C
  C57      1.0000 0.62270  0.87770  0.42613  Biso   1.000  C
  C58      1.0000 0.87770  0.25500  0.92613  Biso   1.000  C
  C59      1.0000 0.25500  0.37730  0.42613  Biso   1.000  C
  C60      1.0000 0.37730  0.12230  0.92613  Biso   1.000  C
  C61      1.0000 0.62270  0.74500  0.42613  Biso   1.000  C
  C62      1.0000 0.87770  0.62270  0.92613  Biso   1.000  C
  C63      1.0000 0.25500  0.87770  0.42613  Biso   1.000  C
  C64      1.0000 0.37730  0.25500  0.92613  Biso   1.000  C
  C65      1.0000 0.12230  0.37730  0.42613  Biso   1.000  C
  C66      1.0000 0.74500  0.12230  0.92613  Biso   1.000  C
  C67      1.0000 0.87770  0.25500  0.57387  Biso   1.000  C
  C68      1.0000 0.25500  0.37730  0.07387  Biso   1.000  C
  C69      1.0000 0.37730  0.12230  0.57387  Biso   1.000  C
  C70      1.0000 0.12230  0.74500  0.07387  Biso   1.000  C
  C71      1.0000 0.74500  0.62270  0.57387  Biso   1.000  C
  C72      1.0000 0.62270  0.87770  0.07387  Biso   1.000  C
  H1       1.0000 0.36200  0.29800  0.58340  Biso   1.000  H
  H2       1.0000 0.06400  0.36200  0.08340  Biso   1.000  H
  H3       1.0000 0.70200  0.06400  0.58340  Biso   1.000  H
  H4       1.0000 0.63800  0.70200  0.08340  Biso   1.000  H
  H5       1.0000 0.93600  0.63800  0.58340  Biso   1.000  H
  H6       1.0000 0.29800  0.93600  0.08340  Biso   1.000  H
  H7       1.0000 0.06400  0.70200  0.41660  Biso   1.000  H
  H8       1.0000 0.70200  0.63800  0.91660  Biso   1.000  H
  H9       1.0000 0.63800  0.93600  0.41660  Biso   1.000  H
  H10      1.0000 0.93600  0.29800  0.91660  Biso   1.000  H
  H11      1.0000 0.29800  0.36200  0.41660  Biso   1.000  H
  H12      1.0000 0.36200  0.06400  0.91660  Biso   1.000  H
  H13      1.0000 0.63800  0.70200  0.41660  Biso   1.000  H
  H14      1.0000 0.93600  0.63800  0.91660  Biso   1.000  H
  H15      1.0000 0.29800  0.93600  0.41660  Biso   1.000  H
  H16      1.0000 0.36200  0.29800  0.91660  Biso   1.000  H
  H17      1.0000 0.06400  0.36200  0.41660  Biso   1.000  H
  H18      1.0000 0.70200  0.06400  0.91660  Biso   1.000  H
  H19      1.0000 0.93600  0.29800  0.58340  Biso   1.000  H
  H20      1.0000 0.29800  0.36200  0.08340  Biso   1.000  H
  H21      1.0000 0.36200  0.06400  0.58340  Biso   1.000  H
  H22      1.0000 0.06400  0.70200  0.08340  Biso   1.000  H
  H23      1.0000 0.70200  0.63800  0.58340  Biso   1.000  H
  H24      1.0000 0.63800  0.93600  0.08340  Biso   1.000  H
  C73      1.0000 0.44060  0.22028  0.52912  Biso   1.000  C
  C74      1.0000 0.22032  0.44060  0.02912  Biso   1.000  C
  C75      1.0000 0.77972  0.22032  0.52912  Biso   1.000  C
  C76      1.0000 0.55940  0.77972  0.02912  Biso   1.000  C
  C77      1.0000 0.77968  0.55940  0.52912  Biso   1.000  C
  C78      1.0000 0.22028  0.77968  0.02912  Biso   1.000  C
  C79      1.0000 0.22032  0.77972  0.47088  Biso   1.000  C
  C80      1.0000 0.77972  0.55940  0.97088  Biso   1.000  C
  C81      1.0000 0.55940  0.77968  0.47088  Biso   1.000  C
  C82      1.0000 0.77968  0.22028  0.97088  Biso   1.000  C
  C83      1.0000 0.22028  0.44060  0.47088  Biso   1.000  C
  C84      1.0000 0.44060  0.22032  0.97088  Biso   1.000  C
  C85      1.0000 0.35450  0.17725  0.58883  Biso   1.000  C
  C86      1.0000 0.17725  0.35450  0.08883  Biso   1.000  C
  C87      1.0000 0.82275  0.17725  0.58883  Biso   1.000  C
  C88      1.0000 0.64550  0.82275  0.08883  Biso   1.000  C
  C89      1.0000 0.82275  0.64550  0.58883  Biso   1.000  C
  C90      1.0000 0.17725  0.82275  0.08883  Biso   1.000  C
  C91      1.0000 0.17725  0.82275  0.41117  Biso   1.000  C
  C92      1.0000 0.82275  0.64550  0.91117  Biso   1.000  C
  C93      1.0000 0.64550  0.82275  0.41117  Biso   1.000  C
  C94      1.0000 0.82275  0.17725  0.91117  Biso   1.000  C
  C95      1.0000 0.17725  0.35450  0.41117  Biso   1.000  C
  C96      1.0000 0.35450  0.17725  0.91117  Biso   1.000  C
  C97      1.0000 0.30710  0.15354  0.62053  Biso   1.000  C
  C98      1.0000 0.15356  0.30710  0.12053  Biso   1.000  C
  C99      1.0000 0.84646  0.15356  0.62053  Biso   1.000  C
  C100     1.0000 0.69290  0.84646  0.12053  Biso   1.000  C
  C101     1.0000 0.84644  0.69290  0.62053  Biso   1.000  C
  C102     1.0000 0.15354  0.84644  0.12053  Biso   1.000  C
  C103     1.0000 0.15356  0.84646  0.37947  Biso   1.000  C
  C104     1.0000 0.84646  0.69290  0.87947  Biso   1.000  C
  C105     1.0000 0.69290  0.84644  0.37947  Biso   1.000  C
  C106     1.0000 0.84644  0.15354  0.87947  Biso   1.000  C
  C107     1.0000 0.15354  0.30710  0.37947  Biso   1.000  C
  C108     1.0000 0.30710  0.15356  0.87947  Biso   1.000  C
  C109     1.0000 0.28540  0.20480  0.63438  Biso   1.000  C
  C110     1.0000 0.08060  0.28540  0.13438  Biso   1.000  C
  C111     1.0000 0.79520  0.08060  0.63438  Biso   1.000  C
  C112     1.0000 0.71460  0.79520  0.13438  Biso   1.000  C
  C113     1.0000 0.91940  0.71460  0.63438  Biso   1.000  C
  C114     1.0000 0.20480  0.91940  0.13438  Biso   1.000  C
  C115     1.0000 0.08060  0.79520  0.36562  Biso   1.000  C
  C116     1.0000 0.79520  0.71460  0.86562  Biso   1.000  C
  C117     1.0000 0.71460  0.91940  0.36562  Biso   1.000  C
  C118     1.0000 0.91940  0.20480  0.86562  Biso   1.000  C
  C119     1.0000 0.20480  0.28540  0.36562  Biso   1.000  C
  C120     1.0000 0.28540  0.08060  0.86562  Biso   1.000  C
  C121     1.0000 0.71460  0.79520  0.36562  Biso   1.000  C
  C122     1.0000 0.91940  0.71460  0.86562  Biso   1.000  C
  C123     1.0000 0.20480  0.91940  0.36562  Biso   1.000  C
  C124     1.0000 0.28540  0.20480  0.86562  Biso   1.000  C
  C125     1.0000 0.08060  0.28540  0.36562  Biso   1.000  C
  C126     1.0000 0.79520  0.08060  0.86562  Biso   1.000  C
  C127     1.0000 0.91940  0.20480  0.63438  Biso   1.000  C
  C128     1.0000 0.20480  0.28540  0.13438  Biso   1.000  C
  C129     1.0000 0.28540  0.08060  0.63438  Biso   1.000  C
  C130     1.0000 0.08060  0.79520  0.13438  Biso   1.000  C
  C131     1.0000 0.79520  0.71460  0.63438  Biso   1.000  C
  C132     1.0000 0.71460  0.91940  0.13438  Biso   1.000  C
  H25      1.0000 0.30330  0.25900  0.62510  Biso   1.000  H
  H26      1.0000 0.04430  0.30330  0.12510  Biso   1.000  H
  H27      1.0000 0.74100  0.04430  0.62510  Biso   1.000  H
  H28      1.0000 0.69670  0.74100  0.12510  Biso   1.000  H
  H29      1.0000 0.95570  0.69670  0.62510  Biso   1.000  H
  H30      1.0000 0.25900  0.95570  0.12510  Biso   1.000  H
  H31      1.0000 0.04430  0.74100  0.37490  Biso   1.000  H
  H32      1.0000 0.74100  0.69670  0.87490  Biso   1.000  H
  H33      1.0000 0.69670  0.95570  0.37490  Biso   1.000  H
  H34      1.0000 0.95570  0.25900  0.87490  Biso   1.000  H
  H35      1.0000 0.25900  0.30330  0.37490  Biso   1.000  H
  H36      1.0000 0.30330  0.04430  0.87490  Biso   1.000  H
  H37      1.0000 0.69670  0.74100  0.37490  Biso   1.000  H
  H38      1.0000 0.95570  0.69670  0.87490  Biso   1.000  H
  H39      1.0000 0.25900  0.95570  0.37490  Biso   1.000  H
  H40      1.0000 0.30330  0.25900  0.87490  Biso   1.000  H
  H41      1.0000 0.04430  0.30330  0.37490  Biso   1.000  H
  H42      1.0000 0.74100  0.04430  0.87490  Biso   1.000  H
  H43      1.0000 0.95570  0.25900  0.62510  Biso   1.000  H
  H44      1.0000 0.25900  0.30330  0.12510  Biso   1.000  H
  H45      1.0000 0.30330  0.04430  0.62510  Biso   1.000  H
  H46      1.0000 0.04430  0.74100  0.12510  Biso   1.000  H
  H47      1.0000 0.74100  0.69670  0.62510  Biso   1.000  H
  H48      1.0000 0.69670  0.95570  0.12510  Biso   1.000  H
  C133     1.0000 0.23710  0.18010  0.66212  Biso   1.000  C
  C134     1.0000 0.05700  0.23710  0.16212  Biso   1.000  C
  C135     1.0000 0.81990  0.05700  0.66212  Biso   1.000  C
  C136     1.0000 0.76290  0.81990  0.16212  Biso   1.000  C
  C137     1.0000 0.94300  0.76290  0.66212  Biso   1.000  C
  C138     1.0000 0.18010  0.94300  0.16212  Biso   1.000  C
  C139     1.0000 0.05700  0.81990  0.33788  Biso   1.000  C
  C140     1.0000 0.81990  0.76290  0.83788  Biso   1.000  C
  C141     1.0000 0.76290  0.94300  0.33788  Biso   1.000  C
  C142     1.0000 0.94300  0.18010  0.83788  Biso   1.000  C
  C143     1.0000 0.18010  0.23710  0.33788  Biso   1.000  C
  C144     1.0000 0.23710  0.05700  0.83788  Biso   1.000  C
  C145     1.0000 0.76290  0.81990  0.33788  Biso   1.000  C
  C146     1.0000 0.94300  0.76290  0.83788  Biso   1.000  C
  C147     1.0000 0.18010  0.94300  0.33788  Biso   1.000  C
  C148     1.0000 0.23710  0.18010  0.83788  Biso   1.000  C
  C149     1.0000 0.05700  0.23710  0.33788  Biso   1.000  C
  C150     1.0000 0.81990  0.05700  0.83788  Biso   1.000  C
  C151     1.0000 0.94300  0.18010  0.66212  Biso   1.000  C
  C152     1.0000 0.18010  0.23710  0.16212  Biso   1.000  C
  C153     1.0000 0.23710  0.05700  0.66212  Biso   1.000  C
  C154     1.0000 0.05700  0.81990  0.16212  Biso   1.000  C
  C155     1.0000 0.81990  0.76290  0.66212  Biso   1.000  C
  C156     1.0000 0.76290  0.94300  0.16212  Biso   1.000  C
  H49      1.0000 0.22150  0.21790  0.67170  Biso   1.000  H
  H50      1.0000 0.00360  0.22150  0.17170  Biso   1.000  H
  H51      1.0000 0.78210  0.00360  0.67170  Biso   1.000  H
  H52      1.0000 0.77850  0.78210  0.17170  Biso   1.000  H
  H53      1.0000 0.99640  0.77850  0.67170  Biso   1.000  H
  H54      1.0000 0.21790  0.99640  0.17170  Biso   1.000  H
  H55      1.0000 0.00360  0.78210  0.32830  Biso   1.000  H
  H56      1.0000 0.78210  0.77850  0.82830  Biso   1.000  H
  H57      1.0000 0.77850  0.99640  0.32830  Biso   1.000  H
  H58      1.0000 0.99640  0.21790  0.82830  Biso   1.000  H
  H59      1.0000 0.21790  0.22150  0.32830  Biso   1.000  H
  H60      1.0000 0.22150  0.00360  0.82830  Biso   1.000  H
  H61      1.0000 0.77850  0.78210  0.32830  Biso   1.000  H
  H62      1.0000 0.99640  0.77850  0.82830  Biso   1.000  H
  H63      1.0000 0.21790  0.99640  0.32830  Biso   1.000  H
  H64      1.0000 0.22150  0.21790  0.82830  Biso   1.000  H
  H65      1.0000 0.00360  0.22150  0.32830  Biso   1.000  H
  H66      1.0000 0.78210  0.00360  0.82830  Biso   1.000  H
  H67      1.0000 0.99640  0.21790  0.67170  Biso   1.000  H
  H68      1.0000 0.21790  0.22150  0.17170  Biso   1.000  H
  H69      1.0000 0.22150  0.00360  0.67170  Biso   1.000  H
  H70      1.0000 0.00360  0.78210  0.17170  Biso   1.000  H
  H71      1.0000 0.78210  0.77850  0.67170  Biso   1.000  H
  H72      1.0000 0.77850  0.99640  0.17170  Biso   1.000  H
  C157     1.0000 0.21110  0.10553  0.67632  Biso   1.000  C
  C158     1.0000 0.10557  0.21110  0.17632  Biso   1.000  C
  C159     1.0000 0.89447  0.10557  0.67632  Biso   1.000  C
  C160     1.0000 0.78890  0.89447  0.17632  Biso   1.000  C
  C161     1.0000 0.89443  0.78890  0.67632  Biso   1.000  C
  C162     1.0000 0.10553  0.89443  0.17632  Biso   1.000  C
  C163     1.0000 0.10557  0.89447  0.32368  Biso   1.000  C
  C164     1.0000 0.89447  0.78890  0.82368  Biso   1.000  C
  C165     1.0000 0.78890  0.89443  0.32368  Biso   1.000  C
  C166     1.0000 0.89443  0.10553  0.82368  Biso   1.000  C
  C167     1.0000 0.10553  0.21110  0.32368  Biso   1.000  C
  C168     1.0000 0.21110  0.10557  0.82368  Biso   1.000  C
  C169     1.0000 0.15450  0.07727  0.70560  Biso   1.000  C
  C170     1.0000 0.07723  0.15450  0.20560  Biso   1.000  C
  C171     1.0000 0.92273  0.07723  0.70560  Biso   1.000  C
  C172     1.0000 0.84550  0.92273  0.20560  Biso   1.000  C
  C173     1.0000 0.92277  0.84550  0.70560  Biso   1.000  C
  C174     1.0000 0.07727  0.92277  0.20560  Biso   1.000  C
  C175     1.0000 0.07723  0.92273  0.29440  Biso   1.000  C
  C176     1.0000 0.92273  0.84550  0.79440  Biso   1.000  C
  C177     1.0000 0.84550  0.92277  0.29440  Biso   1.000  C
  C178     1.0000 0.92277  0.07727  0.79440  Biso   1.000  C
  C179     1.0000 0.07727  0.15450  0.29440  Biso   1.000  C
  C180     1.0000 0.15450  0.07723  0.79440  Biso   1.000  C
  H73      1.0000 0.46600  0.23310  0.50980  Biso   1.000  H
  H74      1.0000 0.23290  0.46600  0.00980  Biso   1.000  H
  H75      1.0000 0.76690  0.23290  0.50980  Biso   1.000  H
  H76      1.0000 0.53400  0.76690  0.00980  Biso   1.000  H
  H77      1.0000 0.76710  0.53400  0.50980  Biso   1.000  H
  H78      1.0000 0.23310  0.76710  0.00980  Biso   1.000  H
  H79      1.0000 0.23290  0.76690  0.49020  Biso   1.000  H
  H80      1.0000 0.76690  0.53400  0.99020  Biso   1.000  H
  H81      1.0000 0.53400  0.76710  0.49020  Biso   1.000  H
  H82      1.0000 0.76710  0.23310  0.99020  Biso   1.000  H
  H83      1.0000 0.23310  0.46600  0.49020  Biso   1.000  H
  H84      1.0000 0.46600  0.23290  0.99020  Biso   1.000  H
