data_image0
_cell_length_a       11.335
_cell_length_b       12.152
_cell_length_c       23.319
_cell_angle_alpha    83.543
_cell_angle_beta     81.741
_cell_angle_gamma    71.112

_symmetry_space_group_name_H-M    "P 1"
_symmetry_int_tables_number       1

loop_
  _symmetry_equiv_pos_as_xyz
  'x, y, z'

loop_
  _atom_site_label
  _atom_site_occupancy
  _atom_site_fract_x
  _atom_site_fract_y
  _atom_site_fract_z
  _atom_site_thermal_displace_type
  _atom_site_B_iso_or_equiv
  _atom_site_type_symbol
  W1       1.0000 0.08615  0.01098  0.23558  Biso   1.000  W
  W2       1.0000 0.91385  0.98902  0.76442  Biso   1.000  W
  W3       1.0000 0.98687  0.15729  0.36891  Biso   1.000  W
  W4       1.0000 0.01313  0.84271  0.63109  Biso   1.000  W
  W5       1.0000 0.98008  0.51458  0.25469  Biso   1.000  W
  W6       1.0000 0.01992  0.48542  0.74531  Biso   1.000  W
  W7       1.0000 0.76239  0.42068  0.36972  Biso   1.000  W
  W8       1.0000 0.23761  0.57932  0.63028  Biso   1.000  W
  W9       1.0000 0.68097  0.18445  0.35560  Biso   1.000  W
  W10      1.0000 0.31903  0.81555  0.64440  Biso   1.000  W
  W11      1.0000 0.78609  0.03283  0.21918  Biso   1.000  W
  W12      1.0000 0.21391  0.96717  0.78082  Biso   1.000  W
  W13      1.0000 0.96737  0.12952  0.11126  Biso   1.000  W
  W14      1.0000 0.03263  0.87048  0.88874  Biso   1.000  W
  W15      1.0000 0.73909  0.42428  0.10830  Biso   1.000  W
  W16      1.0000 0.26091  0.57572  0.89170  Biso   1.000  W
  W17      1.0000 0.64621  0.56719  0.23155  Biso   1.000  W
  W18      1.0000 0.35379  0.43281  0.76845  Biso   1.000  W
  W19      1.0000 0.06895  0.38338  0.13301  Biso   1.000  W
  W20      1.0000 0.93105  0.61662  0.86699  Biso   1.000  W
  W21      1.0000 0.55873  0.33143  0.21797  Biso   1.000  W
  W22      1.0000 0.44127  0.66857  0.78203  Biso   1.000  W
  Cu1      1.0000 0.10780  0.74400  0.25484  Biso   1.000  Cu
  Cu2      1.0000 0.89220  0.25600  0.74516  Biso   1.000  Cu
  Cu3      1.0000 0.69250  0.62980  0.97174  Biso   1.000  Cu
  Cu4      1.0000 0.30750  0.37020  0.02826  Biso   1.000  Cu
  Cu5      1.0000 0.50000  0.00000  0.50000  Biso   1.000  Cu
  Y1       1.0000 0.25550  0.23653  0.25890  Biso   1.000  Y
  Y2       1.0000 0.74450  0.76347  0.74110  Biso   1.000  Y
  Si1      1.0000 0.86880  0.28680  0.23770  Biso   1.000  Si
  Si2      1.0000 0.13120  0.71320  0.76230  Biso   1.000  Si
  O1       1.0000 0.19390  0.86920  0.24260  Biso   1.000  O
  O2       1.0000 0.80610  0.13080  0.75740  Biso   1.000  O
  O3       1.0000 0.05430  0.07860  0.42680  Biso   1.000  O
  O4       1.0000 0.94570  0.92140  0.57320  Biso   1.000  O
  O5       1.0000 0.98460  0.65470  0.26780  Biso   1.000  O
  O6       1.0000 0.01540  0.34530  0.73220  Biso   1.000  O
  O7       1.0000 0.71310  0.51760  0.42240  Biso   1.000  O
  O8       1.0000 0.28690  0.48240  0.57760  Biso   1.000  O
  O9       1.0000 0.57380  0.12540  0.39750  Biso   1.000  O
  O10      1.0000 0.42620  0.87460  0.60250  Biso   1.000  O
  O11      1.0000 0.64010  0.57080  0.90600  Biso   1.000  O
  O12      1.0000 0.35990  0.42920  0.09400  Biso   1.000  O
  O13      1.0000 0.70840  0.93290  0.21680  Biso   1.000  O
  O14      1.0000 0.29160  0.06710  0.78320  Biso   1.000  O
  O15      1.0000 0.01670  0.08490  0.04320  Biso   1.000  O
  O16      1.0000 0.98330  0.91510  0.95680  Biso   1.000  O
  O17      1.0000 0.70340  0.47530  0.03850  Biso   1.000  O
  O18      1.0000 0.29660  0.52470  0.96150  Biso   1.000  O
  O19      1.0000 0.55110  0.70770  0.24240  Biso   1.000  O
  O20      1.0000 0.44890  0.29230  0.75760  Biso   1.000  O
  O21      1.0000 0.13740  0.43100  0.06570  Biso   1.000  O
  O22      1.0000 0.86260  0.56900  0.93430  Biso   1.000  O
  O23      1.0000 0.40820  0.32410  0.21970  Biso   1.000  O
  O24      1.0000 0.59180  0.67590  0.78030  Biso   1.000  O
  O25      1.0000 0.74450  0.36630  0.20880  Biso   1.000  O
  O26      1.0000 0.25550  0.63370  0.79120  Biso   1.000  O
  O27      1.0000 0.65330  0.32960  0.39170  Biso   1.000  O
  O28      1.0000 0.34670  0.67040  0.60830  Biso   1.000  O
  O29      1.0000 0.89350  0.29780  0.40510  Biso   1.000  O
  O30      1.0000 0.10650  0.70220  0.59490  Biso   1.000  O
  O31      1.0000 0.82260  0.11300  0.39130  Biso   1.000  O
  O32      1.0000 0.17740  0.88700  0.60870  Biso   1.000  O
  O33      1.0000 0.66050  0.50350  0.31150  Biso   1.000  O
  O34      1.0000 0.33950  0.49650  0.68850  Biso   1.000  O
  O35      1.0000 0.74290  0.07120  0.29800  Biso   1.000  O
  O36      1.0000 0.25710  0.92880  0.70200  Biso   1.000  O
  O37      1.0000 0.01620  0.04320  0.31260  Biso   1.000  O
  O38      1.0000 0.98380  0.95680  0.68740  Biso   1.000  O
  O39      1.0000 0.10120  0.21780  0.33110  Biso   1.000  O
  O40      1.0000 0.89880  0.78220  0.66890  Biso   1.000  O
  O41      1.0000 0.80370  0.57750  0.22970  Biso   1.000  O
  O42      1.0000 0.19630  0.42250  0.77030  Biso   1.000  O
  O43      1.0000 0.13370  0.42560  0.26880  Biso   1.000  O
  O44      1.0000 0.86630  0.57440  0.73120  Biso   1.000  O
  O45      1.0000 0.18320  0.09960  0.23150  Biso   1.000  O
  O46      1.0000 0.81680  0.90040  0.76850  Biso   1.000  O
  O47      1.0000 0.20610  0.31460  0.16600  Biso   1.000  O
  O48      1.0000 0.79390  0.68540  0.83400  Biso   1.000  O
  O49      1.0000 0.03180  0.52060  0.17050  Biso   1.000  O
  O50      1.0000 0.96820  0.47940  0.82950  Biso   1.000  O
  O51      1.0000 0.89080  0.44460  0.11110  Biso   1.000  O
  O52      1.0000 0.10920  0.55540  0.88890  Biso   1.000  O
  O53      1.0000 0.65560  0.56340  0.15010  Biso   1.000  O
  O54      1.0000 0.34440  0.43660  0.84990  Biso   1.000  O
  O55      1.0000 0.82200  0.26550  0.09880  Biso   1.000  O
  O56      1.0000 0.17800  0.73450  0.90120  Biso   1.000  O
  O57      1.0000 0.08940  0.01250  0.15160  Biso   1.000  O
  O58      1.0000 0.91060  0.98750  0.84840  Biso   1.000  O
  O59      1.0000 0.93790  0.94170  0.23730  Biso   1.000  O
  O60      1.0000 0.06210  0.05830  0.76270  Biso   1.000  O
  O61      1.0000 0.51660  0.49100  0.23550  Biso   1.000  O
  O62      1.0000 0.48340  0.50900  0.76450  Biso   1.000  O
  O63      1.0000 0.85220  0.04280  0.13800  Biso   1.000  O
  O64      1.0000 0.14780  0.95720  0.86200  Biso   1.000  O
  O65      1.0000 0.65320  0.17980  0.20040  Biso   1.000  O
  O66      1.0000 0.34680  0.82020  0.79960  Biso   1.000  O
  O67      1.0000 0.05070  0.24110  0.11550  Biso   1.000  O
  O68      1.0000 0.94930  0.75890  0.88450  Biso   1.000  O
  O69      1.0000 0.58190  0.28550  0.29660  Biso   1.000  O
  O70      1.0000 0.41810  0.71450  0.70340  Biso   1.000  O
  O71      1.0000 0.89420  0.47380  0.32470  Biso   1.000  O
  O72      1.0000 0.10580  0.52620  0.67530  Biso   1.000  O
  O73      1.0000 0.58840  0.37820  0.13680  Biso   1.000  O
  O74      1.0000 0.41160  0.62180  0.86320  Biso   1.000  O
  O75      1.0000 0.83610  0.26810  0.30790  Biso   1.000  O
  O76      1.0000 0.16390  0.73190  0.69210  Biso   1.000  O
  O77      1.0000 0.91540  0.15880  0.21170  Biso   1.000  O
  O78      1.0000 0.08460  0.84120  0.78830  Biso   1.000  O
  O79      1.0000 0.97730  0.34750  0.22090  Biso   1.000  O
  O80      1.0000 0.02270  0.65250  0.77910  Biso   1.000  O
  O81      1.0000 0.38800  0.08700  0.31740  Biso   1.000  O
  O82      1.0000 0.61200  0.91300  0.68260  Biso   1.000  O
  O83      1.0000 0.42420  0.10390  0.19710  Biso   1.000  O
  O84      1.0000 0.57580  0.89610  0.80290  Biso   1.000  O
  O85      1.0000 0.31750  0.30700  0.33900  Biso   1.000  O
  O86      1.0000 0.68250  0.69300  0.66100  Biso   1.000  O
  O87      1.0000 0.26990  0.58800  0.25830  Biso   1.000  O
  O88      1.0000 0.73010  0.41200  0.74170  Biso   1.000  O
  C1       1.0000 0.99860  0.77240  0.37380  Biso   1.000  C
  C2       1.0000 0.00140  0.22760  0.62620  Biso   1.000  C
  H1       1.0000 0.92720  0.76900  0.35990  Biso   1.000  H
  H2       1.0000 0.07280  0.23100  0.64010  Biso   1.000  H
  C3       1.0000 0.99190  0.79130  0.43000  Biso   1.000  C
  C4       1.0000 0.00810  0.20870  0.57000  Biso   1.000  C
  C5       1.0000 0.09100  0.80800  0.45480  Biso   1.000  C
  C6       1.0000 0.90900  0.19200  0.54520  Biso   1.000  C
  H3       1.0000 0.08360  0.83090  0.49220  Biso   1.000  H
  H4       1.0000 0.91640  0.16910  0.50780  Biso   1.000  H
  C7       1.0000 0.20380  0.78600  0.41640  Biso   1.000  C
  C8       1.0000 0.79620  0.21400  0.58360  Biso   1.000  C
  C9       1.0000 0.20300  0.76530  0.35990  Biso   1.000  C
  C10      1.0000 0.79700  0.23470  0.64010  Biso   1.000  C
  H5       1.0000 0.27740  0.75530  0.33530  Biso   1.000  H
  H6       1.0000 0.72260  0.24470  0.66470  Biso   1.000  H
  C11      1.0000 0.76300  0.88600  0.45390  Biso   1.000  C
  C12      1.0000 0.23700  0.11400  0.54610  Biso   1.000  C
  H7       1.0000 0.75210  0.92710  0.41800  Biso   1.000  H
  H8       1.0000 0.24790  0.07290  0.58200  Biso   1.000  H
  C13      1.0000 0.71900  0.81460  0.53450  Biso   1.000  C
  C14      1.0000 0.28100  0.18540  0.46550  Biso   1.000  C
  H9       1.0000 0.67530  0.79840  0.56960  Biso   1.000  H
  H10      1.0000 0.32470  0.20160  0.43040  Biso   1.000  H
  C15      1.0000 0.84800  0.76100  0.51810  Biso   1.000  C
  C16      1.0000 0.15200  0.23900  0.48190  Biso   1.000  C
  H11      1.0000 0.90520  0.69990  0.53710  Biso   1.000  H
  H12      1.0000 0.09480  0.30010  0.46290  Biso   1.000  H
  C17      1.0000 0.43100  0.72100  0.42830  Biso   1.000  C
  C18      1.0000 0.56900  0.27900  0.57170  Biso   1.000  C
  H13      1.0000 0.45410  0.64910  0.41270  Biso   1.000  H
  H14      1.0000 0.54590  0.35090  0.58730  Biso   1.000  H
  C19      1.0000 0.50700  0.76800  0.44930  Biso   1.000  C
  C20      1.0000 0.49300  0.23200  0.55070  Biso   1.000  C
  H15      1.0000 0.59210  0.73080  0.45250  Biso   1.000  H
  H16      1.0000 0.40790  0.26920  0.54750  Biso   1.000  H
  C21      1.0000 0.32200  0.89300  0.45550  Biso   1.000  C
  C22      1.0000 0.67800  0.10700  0.54450  Biso   1.000  C
  H17      1.0000 0.25400  0.96040  0.46230  Biso   1.000  H
  H18      1.0000 0.74600  0.03960  0.53770  Biso   1.000  H
  C23      1.0000 0.00200  0.75240  0.14740  Biso   1.000  C
  C24      1.0000 0.99800  0.24760  0.85260  Biso   1.000  C
  H19      1.0000 0.92970  0.75450  0.17230  Biso   1.000  H
  H20      1.0000 0.07030  0.24550  0.82770  Biso   1.000  H
  C25      1.0000 0.99830  0.75540  0.08930  Biso   1.000  C
  C26      1.0000 0.00170  0.24460  0.91070  Biso   1.000  C
  C27      1.0000 0.10280  0.75170  0.05010  Biso   1.000  C
  C28      1.0000 0.89720  0.24830  0.94990  Biso   1.000  C
  H21      1.0000 0.10150  0.75280  0.01030  Biso   1.000  H
  H22      1.0000 0.89850  0.24720  0.98970  Biso   1.000  H
  C29      1.0000 0.21170  0.74630  0.07450  Biso   1.000  C
  C30      1.0000 0.78830  0.25370  0.92550  Biso   1.000  C
  C31      1.0000 0.21140  0.74170  0.13440  Biso   1.000  C
  C32      1.0000 0.78860  0.25830  0.86560  Biso   1.000  C
  H23      1.0000 0.28520  0.73500  0.14950  Biso   1.000  H
  H24      1.0000 0.71480  0.26500  0.85050  Biso   1.000  H
  C33      1.0000 0.43970  0.67620  0.03860  Biso   1.000  C
  C34      1.0000 0.56030  0.32380  0.96140  Biso   1.000  C
  H25      1.0000 0.46240  0.61440  0.06640  Biso   1.000  H
  H26      1.0000 0.53760  0.38560  0.93360  Biso   1.000  H
  C35      1.0000 0.31800  0.83700  0.99220  Biso   1.000  C
  C36      1.0000 0.68200  0.16300  0.00780  Biso   1.000  C
  H27      1.0000 0.25320  0.90350  0.98230  Biso   1.000  H
  H28      1.0000 0.74680  0.09650  0.01770  Biso   1.000  H
  C37      1.0000 0.44300  0.79760  0.96630  Biso   1.000  C
  C38      1.0000 0.55700  0.20240  0.03370  Biso   1.000  C
  H29      1.0000 0.47220  0.83210  0.93190  Biso   1.000  H
  H30      1.0000 0.52780  0.16790  0.06810  Biso   1.000  H
  C39      1.0000 0.87260  0.68770  0.03090  Biso   1.000  C
  C40      1.0000 0.12740  0.31230  0.96910  Biso   1.000  C
  H31      1.0000 0.93900  0.62930  0.01350  Biso   1.000  H
  H32      1.0000 0.06100  0.37070  0.98650  Biso   1.000  H
  C41      1.0000 0.76800  0.83570  0.08540  Biso   1.000  C
  C42      1.0000 0.23200  0.16430  0.91460  Biso   1.000  C
  H33      1.0000 0.75000  0.89480  0.11040  Biso   1.000  H
  H34      1.0000 0.25000  0.10520  0.88960  Biso   1.000  H
  C43      1.0000 0.68500  0.80700  0.05770  Biso   1.000  C
  C44      1.0000 0.31500  0.19300  0.94230  Biso   1.000  C
  H35      1.0000 0.59800  0.84160  0.06100  Biso   1.000  H
  H36      1.0000 0.40200  0.15840  0.93900  Biso   1.000  H
  N1       1.0000 0.10390  0.75830  0.33710  Biso   1.000  N
  N2       1.0000 0.89610  0.24170  0.66290  Biso   1.000  N
  N3       1.0000 0.86770  0.82450  0.46620  Biso   1.000  N
  N4       1.0000 0.13230  0.17550  0.53380  Biso   1.000  N
  N5       1.0000 0.66890  0.89000  0.49300  Biso   1.000  N
  N6       1.0000 0.33110  0.11000  0.50700  Biso   1.000  N
  N7       1.0000 0.31180  0.80010  0.43430  Biso   1.000  N
  N8       1.0000 0.68820  0.19990  0.56570  Biso   1.000  N
  N9       1.0000 0.43770  0.88170  0.46590  Biso   1.000  N
  N10      1.0000 0.56230  0.11830  0.53410  Biso   1.000  N
  N11      1.0000 0.10810  0.74660  0.17050  Biso   1.000  N
  N12      1.0000 0.89190  0.25340  0.82950  Biso   1.000  N
  N13      1.0000 0.31830  0.75200  0.03580  Biso   1.000  N
  N14      1.0000 0.68170  0.24800  0.96420  Biso   1.000  N
  N15      1.0000 0.51870  0.70360  0.99620  Biso   1.000  N
  N16      1.0000 0.48130  0.29640  0.00380  Biso   1.000  N
  N17      1.0000 0.88540  0.75710  0.06770  Biso   1.000  N
  N18      1.0000 0.11460  0.24290  0.93230  Biso   1.000  N
  N19      1.0000 0.75670  0.71050  0.02200  Biso   1.000  N
  N20      1.0000 0.24330  0.28950  0.97800  Biso   1.000  N
  O89      1.0000 0.71800  0.76800  0.33800  Biso   1.000  O
  O90      1.0000 0.28200  0.23200  0.66200  Biso   1.000  O
  O91      1.0000 0.40400  0.46400  0.45300  Biso   1.000  O
  O92      1.0000 0.59600  0.53600  0.54700  Biso   1.000  O
  O93      1.0000 0.07500  0.50600  0.40900  Biso   1.000  O
  O94      1.0000 0.92500  0.49400  0.59100  Biso   1.000  O
  O95      1.0000 0.42000  0.89600  0.16380  Biso   1.000  O
  O96      1.0000 0.58000  0.10400  0.83620  Biso   1.000  O
  O97      1.0000 0.95200  0.52700  0.46700  Biso   1.000  O
  O98      1.0000 0.04800  0.47300  0.53300  Biso   1.000  O
  O99      1.0000 0.34200  0.05100  0.09500  Biso   1.000  O
  O100     1.0000 0.65800  0.94900  0.90500  Biso   1.000  O
  O101     1.0000 0.20000  0.49900  0.39700  Biso   1.000  O
  O102     1.0000 0.80000  0.50100  0.60300  Biso   1.000  O
