data_image0
_cell_length_a       18.504
_cell_length_b       18.504
_cell_length_c       39.035
_cell_angle_alpha    90
_cell_angle_beta     90
_cell_angle_gamma    120

_symmetry_space_group_name_H-M    "P 1"
_symmetry_int_tables_number       1

loop_
  _symmetry_equiv_pos_as_xyz
  'x, y, z'

loop_
  _atom_site_label
  _atom_site_occupancy
  _atom_site_fract_x
  _atom_site_fract_y
  _atom_site_fract_z
  _atom_site_thermal_displace_type
  _atom_site_B_iso_or_equiv
  _atom_site_type_symbol
  Cu1      1.0000 0.19098  0.80902  0.30598  Biso   1.000  Cu
  Cu2      1.0000 0.19098  0.38196  0.30598  Biso   1.000  Cu
  Cu3      1.0000 0.61804  0.80902  0.30598  Biso   1.000  Cu
  Cu4      1.0000 0.80902  0.19098  0.69402  Biso   1.000  Cu
  Cu5      1.0000 0.38196  0.19098  0.69402  Biso   1.000  Cu
  Cu6      1.0000 0.80902  0.61804  0.69402  Biso   1.000  Cu
  Cu7      1.0000 0.85765  0.14235  0.63931  Biso   1.000  Cu
  Cu8      1.0000 0.85765  0.71530  0.63931  Biso   1.000  Cu
  Cu9      1.0000 0.28470  0.14235  0.63931  Biso   1.000  Cu
  Cu10     1.0000 0.47569  0.52432  0.02736  Biso   1.000  Cu
  Cu11     1.0000 0.04863  0.52431  0.02736  Biso   1.000  Cu
  Cu12     1.0000 0.47568  0.95137  0.02736  Biso   1.000  Cu
  Cu13     1.0000 0.52432  0.47569  0.97264  Biso   1.000  Cu
  Cu14     1.0000 0.52431  0.04863  0.97264  Biso   1.000  Cu
  Cu15     1.0000 0.95137  0.47568  0.97264  Biso   1.000  Cu
  Cu16     1.0000 0.14235  0.85765  0.36069  Biso   1.000  Cu
  Cu17     1.0000 0.71530  0.85765  0.36069  Biso   1.000  Cu
  Cu18     1.0000 0.14235  0.28470  0.36069  Biso   1.000  Cu
  C1       1.0000 0.02600  0.78270  0.30541  Biso   1.000  C
  C2       1.0000 0.21730  0.24330  0.30541  Biso   1.000  C
  C3       1.0000 0.75670  0.97400  0.30541  Biso   1.000  C
  C4       1.0000 0.78270  0.02600  0.69459  Biso   1.000  C
  C5       1.0000 0.24330  0.21730  0.69459  Biso   1.000  C
  C6       1.0000 0.97400  0.75670  0.69459  Biso   1.000  C
  C7       1.0000 0.69267  0.11603  0.63874  Biso   1.000  C
  C8       1.0000 0.88397  0.57663  0.63874  Biso   1.000  C
  C9       1.0000 0.42337  0.30733  0.63874  Biso   1.000  C
  C10      1.0000 0.44937  0.35933  0.02792  Biso   1.000  C
  C11      1.0000 0.90997  0.55063  0.02792  Biso   1.000  C
  C12      1.0000 0.64067  0.09003  0.02792  Biso   1.000  C
  C13      1.0000 0.35933  0.44937  0.97208  Biso   1.000  C
  C14      1.0000 0.55063  0.90997  0.97208  Biso   1.000  C
  C15      1.0000 0.09003  0.64067  0.97208  Biso   1.000  C
  C16      1.0000 0.11603  0.69267  0.36126  Biso   1.000  C
  C17      1.0000 0.57663  0.88397  0.36126  Biso   1.000  C
  C18      1.0000 0.30733  0.42337  0.36126  Biso   1.000  C
  C19      1.0000 0.97400  0.21730  0.69459  Biso   1.000  C
  C20      1.0000 0.78270  0.75670  0.69459  Biso   1.000  C
  C21      1.0000 0.24330  0.02600  0.69459  Biso   1.000  C
  C22      1.0000 0.21730  0.97400  0.30541  Biso   1.000  C
  C23      1.0000 0.75670  0.78270  0.30541  Biso   1.000  C
  C24      1.0000 0.02600  0.24330  0.30541  Biso   1.000  C
  C25      1.0000 0.64067  0.55063  0.02792  Biso   1.000  C
  C26      1.0000 0.44937  0.09003  0.02792  Biso   1.000  C
  C27      1.0000 0.90997  0.35933  0.02792  Biso   1.000  C
  C28      1.0000 0.88397  0.30733  0.63874  Biso   1.000  C
  C29      1.0000 0.42337  0.11603  0.63874  Biso   1.000  C
  C30      1.0000 0.69267  0.57663  0.63874  Biso   1.000  C
  C31      1.0000 0.30733  0.88397  0.36126  Biso   1.000  C
  C32      1.0000 0.11603  0.42337  0.36126  Biso   1.000  C
  C33      1.0000 0.57663  0.69267  0.36126  Biso   1.000  C
  C34      1.0000 0.55063  0.64067  0.97208  Biso   1.000  C
  C35      1.0000 0.09003  0.44937  0.97208  Biso   1.000  C
  C36      1.0000 0.35933  0.90997  0.97208  Biso   1.000  C
  C37      1.0000 0.94530  0.76060  0.28819  Biso   1.000  C
  C38      1.0000 0.23940  0.18470  0.28819  Biso   1.000  C
  C39      1.0000 0.81530  0.05470  0.28819  Biso   1.000  C
  C40      1.0000 0.76060  0.94530  0.71181  Biso   1.000  C
  C41      1.0000 0.18470  0.23940  0.71181  Biso   1.000  C
  C42      1.0000 0.05470  0.81530  0.71181  Biso   1.000  C
  C43      1.0000 0.61197  0.09393  0.62152  Biso   1.000  C
  C44      1.0000 0.90607  0.51803  0.62152  Biso   1.000  C
  C45      1.0000 0.48197  0.38803  0.62152  Biso   1.000  C
  C46      1.0000 0.42727  0.27863  0.04514  Biso   1.000  C
  C47      1.0000 0.85137  0.57273  0.04514  Biso   1.000  C
  C48      1.0000 0.72137  0.14863  0.04514  Biso   1.000  C
  C49      1.0000 0.27863  0.42727  0.95486  Biso   1.000  C
  C50      1.0000 0.57273  0.85137  0.95486  Biso   1.000  C
  C51      1.0000 0.14863  0.72137  0.95486  Biso   1.000  C
  C52      1.0000 0.09393  0.61197  0.37848  Biso   1.000  C
  C53      1.0000 0.51803  0.90607  0.37848  Biso   1.000  C
  C54      1.0000 0.38803  0.48197  0.37848  Biso   1.000  C
  C55      1.0000 0.05470  0.23940  0.71181  Biso   1.000  C
  C56      1.0000 0.76060  0.81530  0.71181  Biso   1.000  C
  C57      1.0000 0.18470  0.94530  0.71181  Biso   1.000  C
  C58      1.0000 0.23940  0.05470  0.28819  Biso   1.000  C
  C59      1.0000 0.81530  0.76060  0.28819  Biso   1.000  C
  C60      1.0000 0.94530  0.18470  0.28819  Biso   1.000  C
  C61      1.0000 0.72137  0.57273  0.04514  Biso   1.000  C
  C62      1.0000 0.42727  0.14863  0.04514  Biso   1.000  C
  C63      1.0000 0.85137  0.27863  0.04514  Biso   1.000  C
  C64      1.0000 0.90607  0.38803  0.62152  Biso   1.000  C
  C65      1.0000 0.48197  0.09393  0.62152  Biso   1.000  C
  C66      1.0000 0.61197  0.51803  0.62152  Biso   1.000  C
  C67      1.0000 0.38803  0.90607  0.37848  Biso   1.000  C
  C68      1.0000 0.09393  0.48197  0.37848  Biso   1.000  C
  C69      1.0000 0.51803  0.61197  0.37848  Biso   1.000  C
  C70      1.0000 0.57273  0.72137  0.95486  Biso   1.000  C
  C71      1.0000 0.14863  0.42727  0.95486  Biso   1.000  C
  C72      1.0000 0.27863  0.85137  0.95486  Biso   1.000  C
  C73      1.0000 0.88847  0.77690  0.30458  Biso   1.000  C
  C74      1.0000 0.22310  0.11157  0.30458  Biso   1.000  C
  C75      1.0000 0.88843  0.11153  0.30458  Biso   1.000  C
  C76      1.0000 0.77690  0.88847  0.69542  Biso   1.000  C
  C77      1.0000 0.11157  0.22310  0.69542  Biso   1.000  C
  C78      1.0000 0.11153  0.88843  0.69542  Biso   1.000  C
  C79      1.0000 0.55514  0.11023  0.63791  Biso   1.000  C
  C80      1.0000 0.88977  0.44490  0.63791  Biso   1.000  C
  C81      1.0000 0.55510  0.44486  0.63791  Biso   1.000  C
  C82      1.0000 0.44357  0.22180  0.02875  Biso   1.000  C
  C83      1.0000 0.77824  0.55643  0.02875  Biso   1.000  C
  C84      1.0000 0.77820  0.22176  0.02875  Biso   1.000  C
  C85      1.0000 0.22180  0.44357  0.97125  Biso   1.000  C
  C86      1.0000 0.55643  0.77824  0.97125  Biso   1.000  C
  C87      1.0000 0.22176  0.77820  0.97125  Biso   1.000  C
  C88      1.0000 0.11023  0.55514  0.36209  Biso   1.000  C
  C89      1.0000 0.44490  0.88977  0.36209  Biso   1.000  C
  C90      1.0000 0.44486  0.55510  0.36209  Biso   1.000  C
  H1       1.0000 0.89970  0.79930  0.32710  Biso   1.000  H
  H2       1.0000 0.20070  0.10040  0.32710  Biso   1.000  H
  H3       1.0000 0.89960  0.10030  0.32710  Biso   1.000  H
  H4       1.0000 0.79930  0.89970  0.67290  Biso   1.000  H
  H5       1.0000 0.10040  0.20070  0.67290  Biso   1.000  H
  H6       1.0000 0.10030  0.89960  0.67290  Biso   1.000  H
  H7       1.0000 0.56637  0.13263  0.66043  Biso   1.000  H
  H8       1.0000 0.86737  0.43373  0.66043  Biso   1.000  H
  H9       1.0000 0.56627  0.43363  0.66043  Biso   1.000  H
  H10      1.0000 0.46597  0.23303  0.00623  Biso   1.000  H
  H11      1.0000 0.76707  0.53403  0.00623  Biso   1.000  H
  H12      1.0000 0.76697  0.23293  0.00623  Biso   1.000  H
  H13      1.0000 0.23303  0.46597  0.99377  Biso   1.000  H
  H14      1.0000 0.53403  0.76707  0.99377  Biso   1.000  H
  H15      1.0000 0.23293  0.76697  0.99377  Biso   1.000  H
  H16      1.0000 0.13263  0.56637  0.33957  Biso   1.000  H
  H17      1.0000 0.43373  0.86737  0.33957  Biso   1.000  H
  H18      1.0000 0.43363  0.56627  0.33957  Biso   1.000  H
  C91      1.0000 0.92980  0.73000  0.25543  Biso   1.000  C
  C92      1.0000 0.27000  0.19980  0.25543  Biso   1.000  C
  C93      1.0000 0.80020  0.07020  0.25543  Biso   1.000  C
  C94      1.0000 0.73000  0.92980  0.74457  Biso   1.000  C
  C95      1.0000 0.19980  0.27000  0.74457  Biso   1.000  C
  C96      1.0000 0.07020  0.80020  0.74457  Biso   1.000  C
  C97      1.0000 0.59647  0.06333  0.58876  Biso   1.000  C
  C98      1.0000 0.93667  0.53313  0.58876  Biso   1.000  C
  C99      1.0000 0.46687  0.40353  0.58876  Biso   1.000  C
  C100     1.0000 0.39667  0.26313  0.07790  Biso   1.000  C
  C101     1.0000 0.86647  0.60333  0.07790  Biso   1.000  C
  C102     1.0000 0.73687  0.13353  0.07790  Biso   1.000  C
  C103     1.0000 0.26313  0.39667  0.92210  Biso   1.000  C
  C104     1.0000 0.60333  0.86647  0.92210  Biso   1.000  C
  C105     1.0000 0.13353  0.73687  0.92210  Biso   1.000  C
  C106     1.0000 0.06333  0.59647  0.41124  Biso   1.000  C
  C107     1.0000 0.53313  0.93667  0.41124  Biso   1.000  C
  C108     1.0000 0.40353  0.46687  0.41124  Biso   1.000  C
  C109     1.0000 0.07020  0.27000  0.74457  Biso   1.000  C
  C110     1.0000 0.73000  0.80020  0.74457  Biso   1.000  C
  C111     1.0000 0.19980  0.92980  0.74457  Biso   1.000  C
  C112     1.0000 0.27000  0.07020  0.25543  Biso   1.000  C
  C113     1.0000 0.80020  0.73000  0.25543  Biso   1.000  C
  C114     1.0000 0.92980  0.19980  0.25543  Biso   1.000  C
  C115     1.0000 0.73687  0.60333  0.07790  Biso   1.000  C
  C116     1.0000 0.39667  0.13353  0.07790  Biso   1.000  C
  C117     1.0000 0.86647  0.26313  0.07790  Biso   1.000  C
  C118     1.0000 0.93667  0.40353  0.58876  Biso   1.000  C
  C119     1.0000 0.46687  0.06333  0.58876  Biso   1.000  C
  C120     1.0000 0.59647  0.53313  0.58876  Biso   1.000  C
  C121     1.0000 0.40353  0.93667  0.41124  Biso   1.000  C
  C122     1.0000 0.06333  0.46687  0.41124  Biso   1.000  C
  C123     1.0000 0.53313  0.59647  0.41124  Biso   1.000  C
  C124     1.0000 0.60333  0.73687  0.92210  Biso   1.000  C
  C125     1.0000 0.13353  0.39667  0.92210  Biso   1.000  C
  C126     1.0000 0.26313  0.86647  0.92210  Biso   1.000  C
  H19      1.0000 0.96910  0.71920  0.24420  Biso   1.000  H
  H20      1.0000 0.28080  0.24990  0.24420  Biso   1.000  H
  H21      1.0000 0.75010  0.03090  0.24420  Biso   1.000  H
  H22      1.0000 0.71920  0.96910  0.75580  Biso   1.000  H
  H23      1.0000 0.24990  0.28080  0.75580  Biso   1.000  H
  H24      1.0000 0.03090  0.75010  0.75580  Biso   1.000  H
  H25      1.0000 0.63577  0.05253  0.57753  Biso   1.000  H
  H26      1.0000 0.94747  0.58323  0.57753  Biso   1.000  H
  H27      1.0000 0.41677  0.36423  0.57753  Biso   1.000  H
  H28      1.0000 0.38587  0.30243  0.08913  Biso   1.000  H
  H29      1.0000 0.91657  0.61413  0.08913  Biso   1.000  H
  H30      1.0000 0.69757  0.08343  0.08913  Biso   1.000  H
  H31      1.0000 0.30243  0.38587  0.91087  Biso   1.000  H
  H32      1.0000 0.61413  0.91657  0.91087  Biso   1.000  H
  H33      1.0000 0.08343  0.69757  0.91087  Biso   1.000  H
  H34      1.0000 0.05253  0.63577  0.42247  Biso   1.000  H
  H35      1.0000 0.58323  0.94747  0.42247  Biso   1.000  H
  H36      1.0000 0.36423  0.41677  0.42247  Biso   1.000  H
  H37      1.0000 0.03090  0.28080  0.75580  Biso   1.000  H
  H38      1.0000 0.71920  0.75010  0.75580  Biso   1.000  H
  H39      1.0000 0.24990  0.96910  0.75580  Biso   1.000  H
  H40      1.0000 0.28080  0.03090  0.24420  Biso   1.000  H
  H41      1.0000 0.75010  0.71920  0.24420  Biso   1.000  H
  H42      1.0000 0.96910  0.24990  0.24420  Biso   1.000  H
  H43      1.0000 0.69757  0.61413  0.08913  Biso   1.000  H
  H44      1.0000 0.38587  0.08343  0.08913  Biso   1.000  H
  H45      1.0000 0.91657  0.30243  0.08913  Biso   1.000  H
  H46      1.0000 0.94747  0.36423  0.57753  Biso   1.000  H
  H47      1.0000 0.41677  0.05253  0.57753  Biso   1.000  H
  H48      1.0000 0.63577  0.58323  0.57753  Biso   1.000  H
  H49      1.0000 0.36423  0.94747  0.42247  Biso   1.000  H
  H50      1.0000 0.05253  0.41677  0.42247  Biso   1.000  H
  H51      1.0000 0.58323  0.63577  0.42247  Biso   1.000  H
  H52      1.0000 0.61413  0.69757  0.91087  Biso   1.000  H
  H53      1.0000 0.08343  0.38587  0.91087  Biso   1.000  H
  H54      1.0000 0.30243  0.91657  0.91087  Biso   1.000  H
  C127     1.0000 0.85729  0.71450  0.23815  Biso   1.000  C
  C128     1.0000 0.28550  0.14279  0.23815  Biso   1.000  C
  C129     1.0000 0.85721  0.14271  0.23815  Biso   1.000  C
  C130     1.0000 0.71450  0.85729  0.76185  Biso   1.000  C
  C131     1.0000 0.14279  0.28550  0.76185  Biso   1.000  C
  C132     1.0000 0.14271  0.85721  0.76185  Biso   1.000  C
  C133     1.0000 0.52396  0.04783  0.57148  Biso   1.000  C
  C134     1.0000 0.95217  0.47612  0.57148  Biso   1.000  C
  C135     1.0000 0.52388  0.47604  0.57148  Biso   1.000  C
  C136     1.0000 0.38117  0.19062  0.09518  Biso   1.000  C
  C137     1.0000 0.80946  0.61883  0.09518  Biso   1.000  C
  C138     1.0000 0.80938  0.19054  0.09518  Biso   1.000  C
  C139     1.0000 0.19062  0.38117  0.90482  Biso   1.000  C
  C140     1.0000 0.61883  0.80946  0.90482  Biso   1.000  C
  C141     1.0000 0.19054  0.80938  0.90482  Biso   1.000  C
  C142     1.0000 0.04783  0.52396  0.42852  Biso   1.000  C
  C143     1.0000 0.47612  0.95217  0.42852  Biso   1.000  C
  C144     1.0000 0.47604  0.52388  0.42852  Biso   1.000  C
  C145     1.0000 0.84372  0.68740  0.20182  Biso   1.000  C
  C146     1.0000 0.31260  0.15632  0.20182  Biso   1.000  C
  C147     1.0000 0.84368  0.15628  0.20182  Biso   1.000  C
  C148     1.0000 0.68740  0.84372  0.79818  Biso   1.000  C
  C149     1.0000 0.15632  0.31260  0.79818  Biso   1.000  C
  C150     1.0000 0.15628  0.84368  0.79818  Biso   1.000  C
  C151     1.0000 0.51039  0.02073  0.53515  Biso   1.000  C
  C152     1.0000 0.97927  0.48965  0.53515  Biso   1.000  C
  C153     1.0000 0.51035  0.48961  0.53515  Biso   1.000  C
  C154     1.0000 0.35407  0.17705  0.13151  Biso   1.000  C
  C155     1.0000 0.82299  0.64593  0.13151  Biso   1.000  C
  C156     1.0000 0.82295  0.17701  0.13151  Biso   1.000  C
  C157     1.0000 0.17705  0.35407  0.86849  Biso   1.000  C
  C158     1.0000 0.64593  0.82299  0.86849  Biso   1.000  C
  C159     1.0000 0.17701  0.82295  0.86849  Biso   1.000  C
  C160     1.0000 0.02073  0.51039  0.46485  Biso   1.000  C
  C161     1.0000 0.48965  0.97927  0.46485  Biso   1.000  C
  C162     1.0000 0.48961  0.51035  0.46485  Biso   1.000  C
  C163     1.0000 0.85040  0.61720  0.18940  Biso   1.000  C
  C164     1.0000 0.38280  0.23320  0.18940  Biso   1.000  C
  C165     1.0000 0.76680  0.14960  0.18940  Biso   1.000  C
  C166     1.0000 0.61720  0.85040  0.81060  Biso   1.000  C
  C167     1.0000 0.23320  0.38280  0.81060  Biso   1.000  C
  C168     1.0000 0.14960  0.76680  0.81060  Biso   1.000  C
  C169     1.0000 0.51707  0.95053  0.52273  Biso   1.000  C
  C170     1.0000 0.04947  0.56653  0.52273  Biso   1.000  C
  C171     1.0000 0.43347  0.48293  0.52273  Biso   1.000  C
  C172     1.0000 0.28387  0.18373  0.14393  Biso   1.000  C
  C173     1.0000 0.89987  0.71613  0.14393  Biso   1.000  C
  C174     1.0000 0.81627  0.10013  0.14393  Biso   1.000  C
  C175     1.0000 0.18373  0.28387  0.85607  Biso   1.000  C
  C176     1.0000 0.71613  0.89987  0.85607  Biso   1.000  C
  C177     1.0000 0.10013  0.81627  0.85607  Biso   1.000  C
  C178     1.0000 0.95053  0.51707  0.47727  Biso   1.000  C
  C179     1.0000 0.56653  0.04947  0.47727  Biso   1.000  C
  C180     1.0000 0.48293  0.43347  0.47727  Biso   1.000  C
  C181     1.0000 0.14960  0.38280  0.81060  Biso   1.000  C
  C182     1.0000 0.61720  0.76680  0.81060  Biso   1.000  C
  C183     1.0000 0.23320  0.85040  0.81060  Biso   1.000  C
  C184     1.0000 0.38280  0.14960  0.18940  Biso   1.000  C
  C185     1.0000 0.76680  0.61720  0.18940  Biso   1.000  C
  C186     1.0000 0.85040  0.23320  0.18940  Biso   1.000  C
  C187     1.0000 0.81627  0.71613  0.14393  Biso   1.000  C
  C188     1.0000 0.28387  0.10013  0.14393  Biso   1.000  C
  C189     1.0000 0.89987  0.18373  0.14393  Biso   1.000  C
  C190     1.0000 0.04947  0.48293  0.52273  Biso   1.000  C
  C191     1.0000 0.43347  0.95053  0.52273  Biso   1.000  C
  C192     1.0000 0.51707  0.56653  0.52273  Biso   1.000  C
  C193     1.0000 0.48293  0.04947  0.47727  Biso   1.000  C
  C194     1.0000 0.95053  0.43347  0.47727  Biso   1.000  C
  C195     1.0000 0.56653  0.51707  0.47727  Biso   1.000  C
  C196     1.0000 0.71613  0.81627  0.85607  Biso   1.000  C
  C197     1.0000 0.10013  0.28387  0.85607  Biso   1.000  C
  C198     1.0000 0.18373  0.89987  0.85607  Biso   1.000  C
  C199     1.0000 0.90610  0.73460  0.17822  Biso   1.000  C
  C200     1.0000 0.26540  0.17150  0.17822  Biso   1.000  C
  C201     1.0000 0.82850  0.09390  0.17822  Biso   1.000  C
  C202     1.0000 0.73460  0.90610  0.82178  Biso   1.000  C
  C203     1.0000 0.17150  0.26540  0.82178  Biso   1.000  C
  C204     1.0000 0.09390  0.82850  0.82178  Biso   1.000  C
  C205     1.0000 0.57277  0.06793  0.51155  Biso   1.000  C
  C206     1.0000 0.93207  0.50483  0.51155  Biso   1.000  C
  C207     1.0000 0.49517  0.42723  0.51155  Biso   1.000  C
  C208     1.0000 0.40127  0.23943  0.15511  Biso   1.000  C
  C209     1.0000 0.83817  0.59873  0.15511  Biso   1.000  C
  C210     1.0000 0.76057  0.16183  0.15511  Biso   1.000  C
  C211     1.0000 0.23943  0.40127  0.84489  Biso   1.000  C
  C212     1.0000 0.59873  0.83817  0.84489  Biso   1.000  C
  C213     1.0000 0.16183  0.76057  0.84489  Biso   1.000  C
  C214     1.0000 0.06793  0.57277  0.48845  Biso   1.000  C
  C215     1.0000 0.50483  0.93207  0.48845  Biso   1.000  C
  C216     1.0000 0.42723  0.49517  0.48845  Biso   1.000  C
  C217     1.0000 0.09390  0.26540  0.82178  Biso   1.000  C
  C218     1.0000 0.73460  0.82850  0.82178  Biso   1.000  C
  C219     1.0000 0.17150  0.90610  0.82178  Biso   1.000  C
  C220     1.0000 0.26540  0.09390  0.17822  Biso   1.000  C
  C221     1.0000 0.82850  0.73460  0.17822  Biso   1.000  C
  C222     1.0000 0.90610  0.17150  0.17822  Biso   1.000  C
  C223     1.0000 0.76057  0.59873  0.15511  Biso   1.000  C
  C224     1.0000 0.40127  0.16183  0.15511  Biso   1.000  C
  C225     1.0000 0.83817  0.23943  0.15511  Biso   1.000  C
  C226     1.0000 0.93207  0.42723  0.51155  Biso   1.000  C
  C227     1.0000 0.49517  0.06793  0.51155  Biso   1.000  C
  C228     1.0000 0.57277  0.50483  0.51155  Biso   1.000  C
  C229     1.0000 0.42723  0.93207  0.48845  Biso   1.000  C
  C230     1.0000 0.06793  0.49517  0.48845  Biso   1.000  C
  C231     1.0000 0.50483  0.57277  0.48845  Biso   1.000  C
  C232     1.0000 0.59873  0.76057  0.84489  Biso   1.000  C
  C233     1.0000 0.16183  0.40127  0.84489  Biso   1.000  C
  C234     1.0000 0.23943  0.83817  0.84489  Biso   1.000  C
  H55      1.0000 0.95550  0.78200  0.18630  Biso   1.000  H
  H56      1.0000 0.21800  0.17350  0.18630  Biso   1.000  H
  H57      1.0000 0.82650  0.04450  0.18630  Biso   1.000  H
  H58      1.0000 0.78200  0.95550  0.81370  Biso   1.000  H
  H59      1.0000 0.17350  0.21800  0.81370  Biso   1.000  H
  H60      1.0000 0.04450  0.82650  0.81370  Biso   1.000  H
  H61      1.0000 0.62217  0.11533  0.51963  Biso   1.000  H
  H62      1.0000 0.88467  0.50683  0.51963  Biso   1.000  H
  H63      1.0000 0.49317  0.37783  0.51963  Biso   1.000  H
  H64      1.0000 0.44867  0.28883  0.14703  Biso   1.000  H
  H65      1.0000 0.84017  0.55133  0.14703  Biso   1.000  H
  H66      1.0000 0.71117  0.15983  0.14703  Biso   1.000  H
  H67      1.0000 0.28883  0.44867  0.85297  Biso   1.000  H
  H68      1.0000 0.55133  0.84017  0.85297  Biso   1.000  H
  H69      1.0000 0.15983  0.71117  0.85297  Biso   1.000  H
  H70      1.0000 0.11533  0.62217  0.48037  Biso   1.000  H
  H71      1.0000 0.50683  0.88467  0.48037  Biso   1.000  H
  H72      1.0000 0.37783  0.49317  0.48037  Biso   1.000  H
  H73      1.0000 0.04450  0.21800  0.81370  Biso   1.000  H
  H74      1.0000 0.78200  0.82650  0.81370  Biso   1.000  H
  H75      1.0000 0.17350  0.95550  0.81370  Biso   1.000  H
  H76      1.0000 0.21800  0.04450  0.18630  Biso   1.000  H
  H77      1.0000 0.82650  0.78200  0.18630  Biso   1.000  H
  H78      1.0000 0.95550  0.17350  0.18630  Biso   1.000  H
  H79      1.0000 0.71117  0.55133  0.14703  Biso   1.000  H
  H80      1.0000 0.44867  0.15983  0.14703  Biso   1.000  H
  H81      1.0000 0.84017  0.28883  0.14703  Biso   1.000  H
  H82      1.0000 0.88467  0.37783  0.51963  Biso   1.000  H
  H83      1.0000 0.49317  0.11533  0.51963  Biso   1.000  H
  H84      1.0000 0.62217  0.50683  0.51963  Biso   1.000  H
  H85      1.0000 0.37783  0.88467  0.48037  Biso   1.000  H
  H86      1.0000 0.11533  0.49317  0.48037  Biso   1.000  H
  H87      1.0000 0.50683  0.62217  0.48037  Biso   1.000  H
  H88      1.0000 0.55133  0.71117  0.85297  Biso   1.000  H
  H89      1.0000 0.15983  0.44867  0.85297  Biso   1.000  H
  H90      1.0000 0.28883  0.84017  0.85297  Biso   1.000  H
  C235     1.0000 0.86620  0.56220  0.21300  Biso   1.000  C
  C236     1.0000 0.43780  0.30400  0.21300  Biso   1.000  C
  C237     1.0000 0.69600  0.13380  0.21300  Biso   1.000  C
  C238     1.0000 0.56220  0.86620  0.78700  Biso   1.000  C
  C239     1.0000 0.30400  0.43780  0.78700  Biso   1.000  C
  C240     1.0000 0.13380  0.69600  0.78700  Biso   1.000  C
  C241     1.0000 0.53287  0.89553  0.54633  Biso   1.000  C
  C242     1.0000 0.10447  0.63733  0.54633  Biso   1.000  C
  C243     1.0000 0.36267  0.46713  0.54633  Biso   1.000  C
  C244     1.0000 0.22887  0.19953  0.12033  Biso   1.000  C
  C245     1.0000 0.97067  0.77113  0.12033  Biso   1.000  C
  C246     1.0000 0.80047  0.02933  0.12033  Biso   1.000  C
  C247     1.0000 0.19953  0.22887  0.87967  Biso   1.000  C
  C248     1.0000 0.77113  0.97067  0.87967  Biso   1.000  C
  C249     1.0000 0.02933  0.80047  0.87967  Biso   1.000  C
  C250     1.0000 0.89553  0.53287  0.45367  Biso   1.000  C
  C251     1.0000 0.63733  0.10447  0.45367  Biso   1.000  C
  C252     1.0000 0.46713  0.36267  0.45367  Biso   1.000  C
  C253     1.0000 0.13380  0.43780  0.78700  Biso   1.000  C
  C254     1.0000 0.56220  0.69600  0.78700  Biso   1.000  C
  C255     1.0000 0.30400  0.86620  0.78700  Biso   1.000  C
  C256     1.0000 0.43780  0.13380  0.21300  Biso   1.000  C
  C257     1.0000 0.69600  0.56220  0.21300  Biso   1.000  C
  C258     1.0000 0.86620  0.30400  0.21300  Biso   1.000  C
  C259     1.0000 0.80047  0.77113  0.12033  Biso   1.000  C
  C260     1.0000 0.22887  0.02933  0.12033  Biso   1.000  C
  C261     1.0000 0.97067  0.19953  0.12033  Biso   1.000  C
  C262     1.0000 0.10447  0.46713  0.54633  Biso   1.000  C
  C263     1.0000 0.36267  0.89553  0.54633  Biso   1.000  C
  C264     1.0000 0.53287  0.63733  0.54633  Biso   1.000  C
  C265     1.0000 0.46713  0.10447  0.45367  Biso   1.000  C
  C266     1.0000 0.89553  0.36267  0.45367  Biso   1.000  C
  C267     1.0000 0.63733  0.53287  0.45367  Biso   1.000  C
  C268     1.0000 0.77113  0.80047  0.87967  Biso   1.000  C
  C269     1.0000 0.02933  0.22887  0.87967  Biso   1.000  C
  C270     1.0000 0.19953  0.97067  0.87967  Biso   1.000  C
  H91      1.0000 0.85460  0.51110  0.20090  Biso   1.000  H
  H92      1.0000 0.48890  0.34350  0.20090  Biso   1.000  H
  H93      1.0000 0.65650  0.14540  0.20090  Biso   1.000  H
  H94      1.0000 0.51110  0.85460  0.79910  Biso   1.000  H
  H95      1.0000 0.34350  0.48890  0.79910  Biso   1.000  H
  H96      1.0000 0.14540  0.65650  0.79910  Biso   1.000  H
  H97      1.0000 0.52127  0.84443  0.53423  Biso   1.000  H
  H98      1.0000 0.15557  0.67683  0.53423  Biso   1.000  H
  H99      1.0000 0.32317  0.47873  0.53423  Biso   1.000  H
  H100     1.0000 0.17777  0.18793  0.13243  Biso   1.000  H
  H101     1.0000 0.01017  0.82223  0.13243  Biso   1.000  H
  H102     1.0000 0.81207  0.98983  0.13243  Biso   1.000  H
  H103     1.0000 0.18793  0.17777  0.86757  Biso   1.000  H
  H104     1.0000 0.82223  0.01017  0.86757  Biso   1.000  H
  H105     1.0000 0.98983  0.81207  0.86757  Biso   1.000  H
  H106     1.0000 0.84443  0.52127  0.46577  Biso   1.000  H
  H107     1.0000 0.67683  0.15557  0.46577  Biso   1.000  H
  H108     1.0000 0.47873  0.32317  0.46577  Biso   1.000  H
  H109     1.0000 0.14540  0.48890  0.79910  Biso   1.000  H
  H110     1.0000 0.51110  0.65650  0.79910  Biso   1.000  H
  H111     1.0000 0.34350  0.85460  0.79910  Biso   1.000  H
  H112     1.0000 0.48890  0.14540  0.20090  Biso   1.000  H
  H113     1.0000 0.65650  0.51110  0.20090  Biso   1.000  H
  H114     1.0000 0.85460  0.34350  0.20090  Biso   1.000  H
  H115     1.0000 0.81207  0.82223  0.13243  Biso   1.000  H
  H116     1.0000 0.17777  0.98983  0.13243  Biso   1.000  H
  H117     1.0000 0.01017  0.18793  0.13243  Biso   1.000  H
  H118     1.0000 0.15557  0.47873  0.53423  Biso   1.000  H
  H119     1.0000 0.32317  0.84443  0.53423  Biso   1.000  H
  H120     1.0000 0.52127  0.67683  0.53423  Biso   1.000  H
  H121     1.0000 0.47873  0.15557  0.46577  Biso   1.000  H
  H122     1.0000 0.84443  0.32317  0.46577  Biso   1.000  H
  H123     1.0000 0.67683  0.52127  0.46577  Biso   1.000  H
  H124     1.0000 0.82223  0.81207  0.86757  Biso   1.000  H
  H125     1.0000 0.98983  0.17777  0.86757  Biso   1.000  H
  H126     1.0000 0.18793  0.01017  0.86757  Biso   1.000  H
  H127     1.0000 0.82970  0.54770  0.23310  Biso   1.000  H
  H128     1.0000 0.45230  0.28200  0.23310  Biso   1.000  H
  H129     1.0000 0.71800  0.17030  0.23310  Biso   1.000  H
  H130     1.0000 0.54770  0.82970  0.76690  Biso   1.000  H
  H131     1.0000 0.28200  0.45230  0.76690  Biso   1.000  H
  H132     1.0000 0.17030  0.71800  0.76690  Biso   1.000  H
  H133     1.0000 0.49637  0.88103  0.56643  Biso   1.000  H
  H134     1.0000 0.11897  0.61533  0.56643  Biso   1.000  H
  H135     1.0000 0.38467  0.50363  0.56643  Biso   1.000  H
  H136     1.0000 0.21437  0.16303  0.10023  Biso   1.000  H
  H137     1.0000 0.94867  0.78563  0.10023  Biso   1.000  H
  H138     1.0000 0.83697  0.05133  0.10023  Biso   1.000  H
  H139     1.0000 0.16303  0.21437  0.89977  Biso   1.000  H
  H140     1.0000 0.78563  0.94867  0.89977  Biso   1.000  H
  H141     1.0000 0.05133  0.83697  0.89977  Biso   1.000  H
  H142     1.0000 0.88103  0.49637  0.43357  Biso   1.000  H
  H143     1.0000 0.61533  0.11897  0.43357  Biso   1.000  H
  H144     1.0000 0.50363  0.38467  0.43357  Biso   1.000  H
  H145     1.0000 0.17030  0.45230  0.76690  Biso   1.000  H
  H146     1.0000 0.54770  0.71800  0.76690  Biso   1.000  H
  H147     1.0000 0.28200  0.82970  0.76690  Biso   1.000  H
  H148     1.0000 0.45230  0.17030  0.23310  Biso   1.000  H
  H149     1.0000 0.71800  0.54770  0.23310  Biso   1.000  H
  H150     1.0000 0.82970  0.28200  0.23310  Biso   1.000  H
  H151     1.0000 0.83697  0.78563  0.10023  Biso   1.000  H
  H152     1.0000 0.21437  0.05133  0.10023  Biso   1.000  H
  H153     1.0000 0.94867  0.16303  0.10023  Biso   1.000  H
  H154     1.0000 0.11897  0.50363  0.56643  Biso   1.000  H
  H155     1.0000 0.38467  0.88103  0.56643  Biso   1.000  H
  H156     1.0000 0.49637  0.61533  0.56643  Biso   1.000  H
  H157     1.0000 0.50363  0.11897  0.43357  Biso   1.000  H
  H158     1.0000 0.88103  0.38467  0.43357  Biso   1.000  H
  H159     1.0000 0.61533  0.49637  0.43357  Biso   1.000  H
  H160     1.0000 0.78563  0.83697  0.89977  Biso   1.000  H
  H161     1.0000 0.05133  0.21437  0.89977  Biso   1.000  H
  H162     1.0000 0.16303  0.94867  0.89977  Biso   1.000  H
  H163     1.0000 0.92470  0.59200  0.22040  Biso   1.000  H
  H164     1.0000 0.40800  0.33270  0.22040  Biso   1.000  H
  H165     1.0000 0.66730  0.07530  0.22040  Biso   1.000  H
  H166     1.0000 0.59200  0.92470  0.77960  Biso   1.000  H
  H167     1.0000 0.33270  0.40800  0.77960  Biso   1.000  H
  H168     1.0000 0.07530  0.66730  0.77960  Biso   1.000  H
  H169     1.0000 0.59137  0.92533  0.55373  Biso   1.000  H
  H170     1.0000 0.07467  0.66603  0.55373  Biso   1.000  H
  H171     1.0000 0.33397  0.40863  0.55373  Biso   1.000  H
  H172     1.0000 0.25867  0.25803  0.11293  Biso   1.000  H
  H173     1.0000 0.99937  0.74133  0.11293  Biso   1.000  H
  H174     1.0000 0.74197  0.00063  0.11293  Biso   1.000  H
  H175     1.0000 0.25803  0.25867  0.88707  Biso   1.000  H
  H176     1.0000 0.74133  0.99937  0.88707  Biso   1.000  H
  H177     1.0000 0.00063  0.74197  0.88707  Biso   1.000  H
  H178     1.0000 0.92533  0.59137  0.44627  Biso   1.000  H
  H179     1.0000 0.66603  0.07467  0.44627  Biso   1.000  H
  H180     1.0000 0.40863  0.33397  0.44627  Biso   1.000  H
  H181     1.0000 0.07530  0.40800  0.77960  Biso   1.000  H
  H182     1.0000 0.59200  0.66730  0.77960  Biso   1.000  H
  H183     1.0000 0.33270  0.92470  0.77960  Biso   1.000  H
  H184     1.0000 0.40800  0.07530  0.22040  Biso   1.000  H
  H185     1.0000 0.66730  0.59200  0.22040  Biso   1.000  H
  H186     1.0000 0.92470  0.33270  0.22040  Biso   1.000  H
  H187     1.0000 0.74197  0.74133  0.11293  Biso   1.000  H
  H188     1.0000 0.25867  0.00063  0.11293  Biso   1.000  H
  H189     1.0000 0.99937  0.25803  0.11293  Biso   1.000  H
  H190     1.0000 0.07467  0.40863  0.55373  Biso   1.000  H
  H191     1.0000 0.33397  0.92533  0.55373  Biso   1.000  H
  H192     1.0000 0.59137  0.66603  0.55373  Biso   1.000  H
  H193     1.0000 0.40863  0.07467  0.44627  Biso   1.000  H
  H194     1.0000 0.92533  0.33397  0.44627  Biso   1.000  H
  H195     1.0000 0.66603  0.59137  0.44627  Biso   1.000  H
  H196     1.0000 0.74133  0.74197  0.88707  Biso   1.000  H
  H197     1.0000 0.00063  0.25867  0.88707  Biso   1.000  H
  H198     1.0000 0.25803  0.99937  0.88707  Biso   1.000  H
  O1       1.0000 0.23010  0.76987  0.26137  Biso   1.000  O
  O2       1.0000 0.23013  0.46023  0.26137  Biso   1.000  O
  O3       1.0000 0.53977  0.76990  0.26137  Biso   1.000  O
  O4       1.0000 0.76987  0.23010  0.73863  Biso   1.000  O
  O5       1.0000 0.46023  0.23013  0.73863  Biso   1.000  O
  O6       1.0000 0.76990  0.53977  0.73863  Biso   1.000  O
  O7       1.0000 0.89677  0.10320  0.59470  Biso   1.000  O
  O8       1.0000 0.89680  0.79356  0.59470  Biso   1.000  O
  O9       1.0000 0.20644  0.10323  0.59470  Biso   1.000  O
  O10      1.0000 0.43654  0.56343  0.07196  Biso   1.000  O
  O11      1.0000 0.12690  0.56346  0.07196  Biso   1.000  O
  O12      1.0000 0.43657  0.87310  0.07196  Biso   1.000  O
  O13      1.0000 0.56343  0.43654  0.92804  Biso   1.000  O
  O14      1.0000 0.56346  0.12690  0.92804  Biso   1.000  O
  O15      1.0000 0.87310  0.43657  0.92804  Biso   1.000  O
  O16      1.0000 0.10320  0.89677  0.40530  Biso   1.000  O
  O17      1.0000 0.79356  0.89680  0.40530  Biso   1.000  O
  O18      1.0000 0.10323  0.20644  0.40530  Biso   1.000  O
  O19      1.0000 0.07851  0.77315  0.28871  Biso   1.000  O
  O20      1.0000 0.22685  0.30536  0.28871  Biso   1.000  O
  O21      1.0000 0.69464  0.92149  0.28871  Biso   1.000  O
  O22      1.0000 0.77315  0.07851  0.71129  Biso   1.000  O
  O23      1.0000 0.30536  0.22685  0.71129  Biso   1.000  O
  O24      1.0000 0.92149  0.69464  0.71129  Biso   1.000  O
  O25      1.0000 0.74518  0.10648  0.62204  Biso   1.000  O
  O26      1.0000 0.89352  0.63869  0.62204  Biso   1.000  O
  O27      1.0000 0.36131  0.25482  0.62204  Biso   1.000  O
  O28      1.0000 0.43982  0.41184  0.04462  Biso   1.000  O
  O29      1.0000 0.97203  0.56018  0.04462  Biso   1.000  O
  O30      1.0000 0.58816  0.02797  0.04462  Biso   1.000  O
  O31      1.0000 0.41184  0.43982  0.95538  Biso   1.000  O
  O32      1.0000 0.56018  0.97203  0.95538  Biso   1.000  O
  O33      1.0000 0.02797  0.58816  0.95538  Biso   1.000  O
  O34      1.0000 0.10648  0.74518  0.37796  Biso   1.000  O
  O35      1.0000 0.63869  0.89352  0.37796  Biso   1.000  O
  O36      1.0000 0.25482  0.36131  0.37796  Biso   1.000  O
  O37      1.0000 0.92149  0.22685  0.71129  Biso   1.000  O
  O38      1.0000 0.77315  0.69464  0.71129  Biso   1.000  O
  O39      1.0000 0.30536  0.07851  0.71129  Biso   1.000  O
  O40      1.0000 0.22685  0.92149  0.28871  Biso   1.000  O
  O41      1.0000 0.69464  0.77315  0.28871  Biso   1.000  O
  O42      1.0000 0.07851  0.30536  0.28871  Biso   1.000  O
  O43      1.0000 0.58816  0.56018  0.04462  Biso   1.000  O
  O44      1.0000 0.43982  0.02797  0.04462  Biso   1.000  O
  O45      1.0000 0.97203  0.41184  0.04462  Biso   1.000  O
  O46      1.0000 0.89352  0.25482  0.62204  Biso   1.000  O
  O47      1.0000 0.36131  0.10648  0.62204  Biso   1.000  O
  O48      1.0000 0.74518  0.63869  0.62204  Biso   1.000  O
  O49      1.0000 0.25482  0.89352  0.37796  Biso   1.000  O
  O50      1.0000 0.10648  0.36131  0.37796  Biso   1.000  O
  O51      1.0000 0.63869  0.74518  0.37796  Biso   1.000  O
  O52      1.0000 0.56018  0.58816  0.95538  Biso   1.000  O
  O53      1.0000 0.02797  0.43982  0.95538  Biso   1.000  O
  O54      1.0000 0.41184  0.97203  0.95538  Biso   1.000  O
  O55      1.0000 0.03816  0.81391  0.33559  Biso   1.000  O
  O56      1.0000 0.18609  0.22425  0.33559  Biso   1.000  O
  O57      1.0000 0.77575  0.96184  0.33559  Biso   1.000  O
  O58      1.0000 0.81391  0.03816  0.66441  Biso   1.000  O
  O59      1.0000 0.22425  0.18609  0.66441  Biso   1.000  O
  O60      1.0000 0.96184  0.77575  0.66441  Biso   1.000  O
  O61      1.0000 0.70483  0.14724  0.66892  Biso   1.000  O
  O62      1.0000 0.85276  0.55758  0.66892  Biso   1.000  O
  O63      1.0000 0.44242  0.29517  0.66892  Biso   1.000  O
  O64      1.0000 0.48058  0.37149  0.99774  Biso   1.000  O
  O65      1.0000 0.89092  0.51942  0.99774  Biso   1.000  O
  O66      1.0000 0.62851  0.10908  0.99774  Biso   1.000  O
  O67      1.0000 0.37149  0.48058  0.00226  Biso   1.000  O
  O68      1.0000 0.51942  0.89092  0.00226  Biso   1.000  O
  O69      1.0000 0.10908  0.62851  0.00226  Biso   1.000  O
  O70      1.0000 0.14724  0.70483  0.33108  Biso   1.000  O
  O71      1.0000 0.55758  0.85276  0.33108  Biso   1.000  O
  O72      1.0000 0.29517  0.44242  0.33108  Biso   1.000  O
  O73      1.0000 0.96184  0.18609  0.66441  Biso   1.000  O
  O74      1.0000 0.81391  0.77575  0.66441  Biso   1.000  O
  O75      1.0000 0.22425  0.03816  0.66441  Biso   1.000  O
  O76      1.0000 0.18609  0.96184  0.33559  Biso   1.000  O
  O77      1.0000 0.77575  0.81391  0.33559  Biso   1.000  O
  O78      1.0000 0.03816  0.22425  0.33559  Biso   1.000  O
  O79      1.0000 0.62851  0.51942  0.99774  Biso   1.000  O
  O80      1.0000 0.48058  0.10908  0.99774  Biso   1.000  O
  O81      1.0000 0.89092  0.37149  0.99774  Biso   1.000  O
  O82      1.0000 0.85276  0.29517  0.66892  Biso   1.000  O
  O83      1.0000 0.44242  0.14724  0.66892  Biso   1.000  O
  O84      1.0000 0.70483  0.55758  0.66892  Biso   1.000  O
  O85      1.0000 0.29517  0.85276  0.33108  Biso   1.000  O
  O86      1.0000 0.14724  0.44242  0.33108  Biso   1.000  O
  O87      1.0000 0.55758  0.70483  0.33108  Biso   1.000  O
  O88      1.0000 0.51942  0.62851  0.00226  Biso   1.000  O
  O89      1.0000 0.10908  0.48058  0.00226  Biso   1.000  O
  O90      1.0000 0.37149  0.89092  0.00226  Biso   1.000  O
