data_image0
_cell_length_a       18.852
_cell_length_b       18.852
_cell_length_c       27.417
_cell_angle_alpha    90
_cell_angle_beta     90
_cell_angle_gamma    90

_symmetry_space_group_name_H-M    "P 1"
_symmetry_int_tables_number       1

loop_
  _symmetry_equiv_pos_as_xyz
  'x, y, z'

loop_
  _atom_site_label
  _atom_site_occupancy
  _atom_site_fract_x
  _atom_site_fract_y
  _atom_site_fract_z
  _atom_site_thermal_displace_type
  _atom_site_B_iso_or_equiv
  _atom_site_type_symbol
  Cu1      1.0000 0.28240  0.71760  0.78688  Biso   1.000  Cu
  Cu2      1.0000 0.28240  0.28240  0.78688  Biso   1.000  Cu
  Cu3      1.0000 0.71760  0.28240  0.78688  Biso   1.000  Cu
  Cu4      1.0000 0.71760  0.71760  0.78688  Biso   1.000  Cu
  Cu5      1.0000 0.28240  0.28240  0.21312  Biso   1.000  Cu
  Cu6      1.0000 0.71760  0.71760  0.21312  Biso   1.000  Cu
  Cu7      1.0000 0.71760  0.28240  0.21312  Biso   1.000  Cu
  Cu8      1.0000 0.28240  0.71760  0.21312  Biso   1.000  Cu
  Cu9      1.0000 0.78240  0.21760  0.28688  Biso   1.000  Cu
  Cu10     1.0000 0.78240  0.78240  0.28688  Biso   1.000  Cu
  Cu11     1.0000 0.21760  0.78240  0.28688  Biso   1.000  Cu
  Cu12     1.0000 0.21760  0.21760  0.28688  Biso   1.000  Cu
  Cu13     1.0000 0.78240  0.78240  0.71312  Biso   1.000  Cu
  Cu14     1.0000 0.21760  0.21760  0.71312  Biso   1.000  Cu
  Cu15     1.0000 0.21760  0.78240  0.71312  Biso   1.000  Cu
  Cu16     1.0000 0.78240  0.21760  0.71312  Biso   1.000  Cu
  O1       1.0000 0.33430  0.66570  0.84650  Biso   1.000  O
  O2       1.0000 0.33430  0.33430  0.84650  Biso   1.000  O
  O3       1.0000 0.66570  0.33430  0.84650  Biso   1.000  O
  O4       1.0000 0.66570  0.66570  0.84650  Biso   1.000  O
  O5       1.0000 0.33430  0.33430  0.15350  Biso   1.000  O
  O6       1.0000 0.66570  0.66570  0.15350  Biso   1.000  O
  O7       1.0000 0.66570  0.33430  0.15350  Biso   1.000  O
  O8       1.0000 0.33430  0.66570  0.15350  Biso   1.000  O
  O9       1.0000 0.83430  0.16570  0.34650  Biso   1.000  O
  O10      1.0000 0.83430  0.83430  0.34650  Biso   1.000  O
  O11      1.0000 0.16570  0.83430  0.34650  Biso   1.000  O
  O12      1.0000 0.16570  0.16570  0.34650  Biso   1.000  O
  O13      1.0000 0.83430  0.83430  0.65350  Biso   1.000  O
  O14      1.0000 0.16570  0.16570  0.65350  Biso   1.000  O
  O15      1.0000 0.16570  0.83430  0.65350  Biso   1.000  O
  O16      1.0000 0.83430  0.16570  0.65350  Biso   1.000  O
  O17      1.0000 0.18820  0.71180  0.81439  Biso   1.000  O
  O18      1.0000 0.28820  0.18820  0.81439  Biso   1.000  O
  O19      1.0000 0.81180  0.28820  0.81439  Biso   1.000  O
  O20      1.0000 0.71180  0.81180  0.81439  Biso   1.000  O
  O21      1.0000 0.18820  0.28820  0.18561  Biso   1.000  O
  O22      1.0000 0.81180  0.71180  0.18561  Biso   1.000  O
  O23      1.0000 0.71180  0.18820  0.18561  Biso   1.000  O
  O24      1.0000 0.28820  0.81180  0.18561  Biso   1.000  O
  O25      1.0000 0.68820  0.21180  0.31439  Biso   1.000  O
  O26      1.0000 0.78820  0.68820  0.31439  Biso   1.000  O
  O27      1.0000 0.31180  0.78820  0.31439  Biso   1.000  O
  O28      1.0000 0.21180  0.31180  0.31439  Biso   1.000  O
  O29      1.0000 0.68820  0.78820  0.68561  Biso   1.000  O
  O30      1.0000 0.31180  0.21180  0.68561  Biso   1.000  O
  O31      1.0000 0.21180  0.68820  0.68561  Biso   1.000  O
  O32      1.0000 0.78820  0.31180  0.68561  Biso   1.000  O
  O33      1.0000 0.81180  0.28820  0.18561  Biso   1.000  O
  O34      1.0000 0.71180  0.81180  0.18561  Biso   1.000  O
  O35      1.0000 0.18820  0.71180  0.18561  Biso   1.000  O
  O36      1.0000 0.28820  0.18820  0.18561  Biso   1.000  O
  O37      1.0000 0.81180  0.71180  0.81439  Biso   1.000  O
  O38      1.0000 0.18820  0.28820  0.81439  Biso   1.000  O
  O39      1.0000 0.28820  0.81180  0.81439  Biso   1.000  O
  O40      1.0000 0.71180  0.18820  0.81439  Biso   1.000  O
  O41      1.0000 0.31180  0.78820  0.68561  Biso   1.000  O
  O42      1.0000 0.21180  0.31180  0.68561  Biso   1.000  O
  O43      1.0000 0.68820  0.21180  0.68561  Biso   1.000  O
  O44      1.0000 0.78820  0.68820  0.68561  Biso   1.000  O
  O45      1.0000 0.31180  0.21180  0.31439  Biso   1.000  O
  O46      1.0000 0.68820  0.78820  0.31439  Biso   1.000  O
  O47      1.0000 0.78820  0.31180  0.31439  Biso   1.000  O
  O48      1.0000 0.21180  0.68820  0.31439  Biso   1.000  O
  O49      1.0000 0.13220  0.76350  0.75122  Biso   1.000  O
  O50      1.0000 0.23650  0.13220  0.75122  Biso   1.000  O
  O51      1.0000 0.86780  0.23650  0.75122  Biso   1.000  O
  O52      1.0000 0.76350  0.86780  0.75122  Biso   1.000  O
  O53      1.0000 0.13220  0.23650  0.24878  Biso   1.000  O
  O54      1.0000 0.86780  0.76350  0.24878  Biso   1.000  O
  O55      1.0000 0.76350  0.13220  0.24878  Biso   1.000  O
  O56      1.0000 0.23650  0.86780  0.24878  Biso   1.000  O
  O57      1.0000 0.63220  0.26350  0.25122  Biso   1.000  O
  O58      1.0000 0.73650  0.63220  0.25122  Biso   1.000  O
  O59      1.0000 0.36780  0.73650  0.25122  Biso   1.000  O
  O60      1.0000 0.26350  0.36780  0.25122  Biso   1.000  O
  O61      1.0000 0.63220  0.73650  0.74878  Biso   1.000  O
  O62      1.0000 0.36780  0.26350  0.74878  Biso   1.000  O
  O63      1.0000 0.26350  0.63220  0.74878  Biso   1.000  O
  O64      1.0000 0.73650  0.36780  0.74878  Biso   1.000  O
  O65      1.0000 0.86780  0.23650  0.24878  Biso   1.000  O
  O66      1.0000 0.76350  0.86780  0.24878  Biso   1.000  O
  O67      1.0000 0.13220  0.76350  0.24878  Biso   1.000  O
  O68      1.0000 0.23650  0.13220  0.24878  Biso   1.000  O
  O69      1.0000 0.86780  0.76350  0.75122  Biso   1.000  O
  O70      1.0000 0.13220  0.23650  0.75122  Biso   1.000  O
  O71      1.0000 0.23650  0.86780  0.75122  Biso   1.000  O
  O72      1.0000 0.76350  0.13220  0.75122  Biso   1.000  O
  O73      1.0000 0.36780  0.73650  0.74878  Biso   1.000  O
  O74      1.0000 0.26350  0.36780  0.74878  Biso   1.000  O
  O75      1.0000 0.63220  0.26350  0.74878  Biso   1.000  O
  O76      1.0000 0.73650  0.63220  0.74878  Biso   1.000  O
  O77      1.0000 0.36780  0.26350  0.25122  Biso   1.000  O
  O78      1.0000 0.63220  0.73650  0.25122  Biso   1.000  O
  O79      1.0000 0.73650  0.36780  0.25122  Biso   1.000  O
  O80      1.0000 0.26350  0.63220  0.25122  Biso   1.000  O
  C1       1.0000 0.13460  0.73600  0.79390  Biso   1.000  C
  C2       1.0000 0.26400  0.13460  0.79390  Biso   1.000  C
  C3       1.0000 0.86540  0.26400  0.79390  Biso   1.000  C
  C4       1.0000 0.73600  0.86540  0.79390  Biso   1.000  C
  C5       1.0000 0.13460  0.26400  0.20610  Biso   1.000  C
  C6       1.0000 0.86540  0.73600  0.20610  Biso   1.000  C
  C7       1.0000 0.73600  0.13460  0.20610  Biso   1.000  C
  C8       1.0000 0.26400  0.86540  0.20610  Biso   1.000  C
  C9       1.0000 0.63460  0.23600  0.29390  Biso   1.000  C
  C10      1.0000 0.76400  0.63460  0.29390  Biso   1.000  C
  C11      1.0000 0.36540  0.76400  0.29390  Biso   1.000  C
  C12      1.0000 0.23600  0.36540  0.29390  Biso   1.000  C
  C13      1.0000 0.63460  0.76400  0.70610  Biso   1.000  C
  C14      1.0000 0.36540  0.23600  0.70610  Biso   1.000  C
  C15      1.0000 0.23600  0.63460  0.70610  Biso   1.000  C
  C16      1.0000 0.76400  0.36540  0.70610  Biso   1.000  C
  C17      1.0000 0.86540  0.26400  0.20610  Biso   1.000  C
  C18      1.0000 0.73600  0.86540  0.20610  Biso   1.000  C
  C19      1.0000 0.13460  0.73600  0.20610  Biso   1.000  C
  C20      1.0000 0.26400  0.13460  0.20610  Biso   1.000  C
  C21      1.0000 0.86540  0.73600  0.79390  Biso   1.000  C
  C22      1.0000 0.13460  0.26400  0.79390  Biso   1.000  C
  C23      1.0000 0.26400  0.86540  0.79390  Biso   1.000  C
  C24      1.0000 0.73600  0.13460  0.79390  Biso   1.000  C
  C25      1.0000 0.36540  0.76400  0.70610  Biso   1.000  C
  C26      1.0000 0.23600  0.36540  0.70610  Biso   1.000  C
  C27      1.0000 0.63460  0.23600  0.70610  Biso   1.000  C
  C28      1.0000 0.76400  0.63460  0.70610  Biso   1.000  C
  C29      1.0000 0.36540  0.23600  0.29390  Biso   1.000  C
  C30      1.0000 0.63460  0.76400  0.29390  Biso   1.000  C
  C31      1.0000 0.76400  0.36540  0.29390  Biso   1.000  C
  C32      1.0000 0.23600  0.63460  0.29390  Biso   1.000  C
  C33      1.0000 0.00000  0.73540  0.79580  Biso   1.000  C
  C34      1.0000 0.26460  0.00000  0.79580  Biso   1.000  C
  C35      1.0000 0.00000  0.26460  0.79580  Biso   1.000  C
  C36      1.0000 0.73540  0.00000  0.79580  Biso   1.000  C
  C37      1.0000 0.00000  0.26460  0.20420  Biso   1.000  C
  C38      1.0000 0.00000  0.73540  0.20420  Biso   1.000  C
  C39      1.0000 0.73540  0.00000  0.20420  Biso   1.000  C
  C40      1.0000 0.26460  0.00000  0.20420  Biso   1.000  C
  C41      1.0000 0.50000  0.23540  0.29580  Biso   1.000  C
  C42      1.0000 0.76460  0.50000  0.29580  Biso   1.000  C
  C43      1.0000 0.50000  0.76460  0.29580  Biso   1.000  C
  C44      1.0000 0.23540  0.50000  0.29580  Biso   1.000  C
  C45      1.0000 0.50000  0.76460  0.70420  Biso   1.000  C
  C46      1.0000 0.50000  0.23540  0.70420  Biso   1.000  C
  C47      1.0000 0.23540  0.50000  0.70420  Biso   1.000  C
  C48      1.0000 0.76460  0.50000  0.70420  Biso   1.000  C
  H1       1.0000 0.00000  0.74530  0.76180  Biso   1.000  H
  H2       1.0000 0.25470  0.00000  0.76180  Biso   1.000  H
  H3       1.0000 0.00000  0.25470  0.76180  Biso   1.000  H
  H4       1.0000 0.74530  0.00000  0.76180  Biso   1.000  H
  H5       1.0000 0.00000  0.25470  0.23820  Biso   1.000  H
  H6       1.0000 0.00000  0.74530  0.23820  Biso   1.000  H
  H7       1.0000 0.74530  0.00000  0.23820  Biso   1.000  H
  H8       1.0000 0.25470  0.00000  0.23820  Biso   1.000  H
  H9       1.0000 0.50000  0.24530  0.26180  Biso   1.000  H
  H10      1.0000 0.75470  0.50000  0.26180  Biso   1.000  H
  H11      1.0000 0.50000  0.75470  0.26180  Biso   1.000  H
  H12      1.0000 0.24530  0.50000  0.26180  Biso   1.000  H
  H13      1.0000 0.50000  0.75470  0.73820  Biso   1.000  H
  H14      1.0000 0.50000  0.24530  0.73820  Biso   1.000  H
  H15      1.0000 0.24530  0.50000  0.73820  Biso   1.000  H
  H16      1.0000 0.75470  0.50000  0.73820  Biso   1.000  H
  C49      1.0000 0.06410  0.72860  0.81880  Biso   1.000  C
  C50      1.0000 0.27140  0.06410  0.81880  Biso   1.000  C
  C51      1.0000 0.93590  0.27140  0.81880  Biso   1.000  C
  C52      1.0000 0.72860  0.93590  0.81880  Biso   1.000  C
  C53      1.0000 0.06410  0.27140  0.18120  Biso   1.000  C
  C54      1.0000 0.93590  0.72860  0.18120  Biso   1.000  C
  C55      1.0000 0.72860  0.06410  0.18120  Biso   1.000  C
  C56      1.0000 0.27140  0.93590  0.18120  Biso   1.000  C
  C57      1.0000 0.56410  0.22860  0.31880  Biso   1.000  C
  C58      1.0000 0.77140  0.56410  0.31880  Biso   1.000  C
  C59      1.0000 0.43590  0.77140  0.31880  Biso   1.000  C
  C60      1.0000 0.22860  0.43590  0.31880  Biso   1.000  C
  C61      1.0000 0.56410  0.77140  0.68120  Biso   1.000  C
  C62      1.0000 0.43590  0.22860  0.68120  Biso   1.000  C
  C63      1.0000 0.22860  0.56410  0.68120  Biso   1.000  C
  C64      1.0000 0.77140  0.43590  0.68120  Biso   1.000  C
  C65      1.0000 0.93590  0.27140  0.18120  Biso   1.000  C
  C66      1.0000 0.72860  0.93590  0.18120  Biso   1.000  C
  C67      1.0000 0.06410  0.72860  0.18120  Biso   1.000  C
  C68      1.0000 0.27140  0.06410  0.18120  Biso   1.000  C
  C69      1.0000 0.93590  0.72860  0.81880  Biso   1.000  C
  C70      1.0000 0.06410  0.27140  0.81880  Biso   1.000  C
  C71      1.0000 0.27140  0.93590  0.81880  Biso   1.000  C
  C72      1.0000 0.72860  0.06410  0.81880  Biso   1.000  C
  C73      1.0000 0.43590  0.77140  0.68120  Biso   1.000  C
  C74      1.0000 0.22860  0.43590  0.68120  Biso   1.000  C
  C75      1.0000 0.56410  0.22860  0.68120  Biso   1.000  C
  C76      1.0000 0.77140  0.56410  0.68120  Biso   1.000  C
  C77      1.0000 0.43590  0.22860  0.31880  Biso   1.000  C
  C78      1.0000 0.56410  0.77140  0.31880  Biso   1.000  C
  C79      1.0000 0.77140  0.43590  0.31880  Biso   1.000  C
  C80      1.0000 0.22860  0.56410  0.31880  Biso   1.000  C
  C81      1.0000 0.06290  0.71750  0.86870  Biso   1.000  C
  C82      1.0000 0.28250  0.06290  0.86870  Biso   1.000  C
  C83      1.0000 0.93710  0.28250  0.86870  Biso   1.000  C
  C84      1.0000 0.71750  0.93710  0.86870  Biso   1.000  C
  C85      1.0000 0.06290  0.28250  0.13130  Biso   1.000  C
  C86      1.0000 0.93710  0.71750  0.13130  Biso   1.000  C
  C87      1.0000 0.71750  0.06290  0.13130  Biso   1.000  C
  C88      1.0000 0.28250  0.93710  0.13130  Biso   1.000  C
  C89      1.0000 0.56290  0.21750  0.36870  Biso   1.000  C
  C90      1.0000 0.78250  0.56290  0.36870  Biso   1.000  C
  C91      1.0000 0.43710  0.78250  0.36870  Biso   1.000  C
  C92      1.0000 0.21750  0.43710  0.36870  Biso   1.000  C
  C93      1.0000 0.56290  0.78250  0.63130  Biso   1.000  C
  C94      1.0000 0.43710  0.21750  0.63130  Biso   1.000  C
  C95      1.0000 0.21750  0.56290  0.63130  Biso   1.000  C
  C96      1.0000 0.78250  0.43710  0.63130  Biso   1.000  C
  C97      1.0000 0.93710  0.28250  0.13130  Biso   1.000  C
  C98      1.0000 0.71750  0.93710  0.13130  Biso   1.000  C
  C99      1.0000 0.06290  0.71750  0.13130  Biso   1.000  C
  C100     1.0000 0.28250  0.06290  0.13130  Biso   1.000  C
  C101     1.0000 0.93710  0.71750  0.86870  Biso   1.000  C
  C102     1.0000 0.06290  0.28250  0.86870  Biso   1.000  C
  C103     1.0000 0.28250  0.93710  0.86870  Biso   1.000  C
  C104     1.0000 0.71750  0.06290  0.86870  Biso   1.000  C
  C105     1.0000 0.43710  0.78250  0.63130  Biso   1.000  C
  C106     1.0000 0.21750  0.43710  0.63130  Biso   1.000  C
  C107     1.0000 0.56290  0.21750  0.63130  Biso   1.000  C
  C108     1.0000 0.78250  0.56290  0.63130  Biso   1.000  C
  C109     1.0000 0.43710  0.21750  0.36870  Biso   1.000  C
  C110     1.0000 0.56290  0.78250  0.36870  Biso   1.000  C
  C111     1.0000 0.78250  0.43710  0.36870  Biso   1.000  C
  C112     1.0000 0.21750  0.56290  0.36870  Biso   1.000  C
  H17      1.0000 0.10630  0.71300  0.88590  Biso   1.000  H
  H18      1.0000 0.28700  0.10630  0.88590  Biso   1.000  H
  H19      1.0000 0.89370  0.28700  0.88590  Biso   1.000  H
  H20      1.0000 0.71300  0.89370  0.88590  Biso   1.000  H
  H21      1.0000 0.10630  0.28700  0.11410  Biso   1.000  H
  H22      1.0000 0.89370  0.71300  0.11410  Biso   1.000  H
  H23      1.0000 0.71300  0.10630  0.11410  Biso   1.000  H
  H24      1.0000 0.28700  0.89370  0.11410  Biso   1.000  H
  H25      1.0000 0.60630  0.21300  0.38590  Biso   1.000  H
  H26      1.0000 0.78700  0.60630  0.38590  Biso   1.000  H
  H27      1.0000 0.39370  0.78700  0.38590  Biso   1.000  H
  H28      1.0000 0.21300  0.39370  0.38590  Biso   1.000  H
  H29      1.0000 0.60630  0.78700  0.61410  Biso   1.000  H
  H30      1.0000 0.39370  0.21300  0.61410  Biso   1.000  H
  H31      1.0000 0.21300  0.60630  0.61410  Biso   1.000  H
  H32      1.0000 0.78700  0.39370  0.61410  Biso   1.000  H
  H33      1.0000 0.89370  0.28700  0.11410  Biso   1.000  H
  H34      1.0000 0.71300  0.89370  0.11410  Biso   1.000  H
  H35      1.0000 0.10630  0.71300  0.11410  Biso   1.000  H
  H36      1.0000 0.28700  0.10630  0.11410  Biso   1.000  H
  H37      1.0000 0.89370  0.71300  0.88590  Biso   1.000  H
  H38      1.0000 0.10630  0.28700  0.88590  Biso   1.000  H
  H39      1.0000 0.28700  0.89370  0.88590  Biso   1.000  H
  H40      1.0000 0.71300  0.10630  0.88590  Biso   1.000  H
  H41      1.0000 0.39370  0.78700  0.61410  Biso   1.000  H
  H42      1.0000 0.21300  0.39370  0.61410  Biso   1.000  H
  H43      1.0000 0.60630  0.21300  0.61410  Biso   1.000  H
  H44      1.0000 0.78700  0.60630  0.61410  Biso   1.000  H
  H45      1.0000 0.39370  0.21300  0.38590  Biso   1.000  H
  H46      1.0000 0.60630  0.78700  0.38590  Biso   1.000  H
  H47      1.0000 0.78700  0.39370  0.38590  Biso   1.000  H
  H48      1.0000 0.21300  0.60630  0.38590  Biso   1.000  H
  C113     1.0000 0.00000  0.71280  0.89360  Biso   1.000  C
  C114     1.0000 0.28720  0.00000  0.89360  Biso   1.000  C
  C115     1.0000 0.00000  0.28720  0.89360  Biso   1.000  C
  C116     1.0000 0.71280  0.00000  0.89360  Biso   1.000  C
  C117     1.0000 0.00000  0.28720  0.10640  Biso   1.000  C
  C118     1.0000 0.00000  0.71280  0.10640  Biso   1.000  C
  C119     1.0000 0.71280  0.00000  0.10640  Biso   1.000  C
  C120     1.0000 0.28720  0.00000  0.10640  Biso   1.000  C
  C121     1.0000 0.50000  0.21280  0.39360  Biso   1.000  C
  C122     1.0000 0.78720  0.50000  0.39360  Biso   1.000  C
  C123     1.0000 0.50000  0.78720  0.39360  Biso   1.000  C
  C124     1.0000 0.21280  0.50000  0.39360  Biso   1.000  C
  C125     1.0000 0.50000  0.78720  0.60640  Biso   1.000  C
  C126     1.0000 0.50000  0.21280  0.60640  Biso   1.000  C
  C127     1.0000 0.21280  0.50000  0.60640  Biso   1.000  C
  C128     1.0000 0.78720  0.50000  0.60640  Biso   1.000  C
  C129     1.0000 0.00000  0.71500  0.95050  Biso   1.000  C
  C130     1.0000 0.28500  0.00000  0.95050  Biso   1.000  C
  C131     1.0000 0.00000  0.28500  0.95050  Biso   1.000  C
  C132     1.0000 0.71500  0.00000  0.95050  Biso   1.000  C
  C133     1.0000 0.00000  0.28500  0.04950  Biso   1.000  C
  C134     1.0000 0.00000  0.71500  0.04950  Biso   1.000  C
  C135     1.0000 0.71500  0.00000  0.04950  Biso   1.000  C
  C136     1.0000 0.28500  0.00000  0.04950  Biso   1.000  C
  C137     1.0000 0.50000  0.21500  0.45050  Biso   1.000  C
  C138     1.0000 0.78500  0.50000  0.45050  Biso   1.000  C
  C139     1.0000 0.50000  0.78500  0.45050  Biso   1.000  C
  C140     1.0000 0.21500  0.50000  0.45050  Biso   1.000  C
  C141     1.0000 0.50000  0.78500  0.54950  Biso   1.000  C
  C142     1.0000 0.50000  0.21500  0.54950  Biso   1.000  C
  C143     1.0000 0.21500  0.50000  0.54950  Biso   1.000  C
  C144     1.0000 0.78500  0.50000  0.54950  Biso   1.000  C
  C145     1.0000 0.97200  0.65630  0.97440  Biso   1.000  C
  C146     1.0000 0.34370  0.97200  0.97440  Biso   1.000  C
  C147     1.0000 0.02800  0.34370  0.97440  Biso   1.000  C
  C148     1.0000 0.65630  0.02800  0.97440  Biso   1.000  C
  C149     1.0000 0.97200  0.34370  0.02560  Biso   1.000  C
  C150     1.0000 0.02800  0.65630  0.02560  Biso   1.000  C
  C151     1.0000 0.65630  0.97200  0.02560  Biso   1.000  C
  C152     1.0000 0.34370  0.02800  0.02560  Biso   1.000  C
  C153     1.0000 0.47200  0.15630  0.47440  Biso   1.000  C
  C154     1.0000 0.84370  0.47200  0.47440  Biso   1.000  C
  C155     1.0000 0.52800  0.84370  0.47440  Biso   1.000  C
  C156     1.0000 0.15630  0.52800  0.47440  Biso   1.000  C
  C157     1.0000 0.47200  0.84370  0.52560  Biso   1.000  C
  C158     1.0000 0.52800  0.15630  0.52560  Biso   1.000  C
  C159     1.0000 0.15630  0.47200  0.52560  Biso   1.000  C
  C160     1.0000 0.84370  0.52800  0.52560  Biso   1.000  C
  C161     1.0000 0.02800  0.34370  0.02560  Biso   1.000  C
  C162     1.0000 0.65630  0.02800  0.02560  Biso   1.000  C
  C163     1.0000 0.97200  0.65630  0.02560  Biso   1.000  C
  C164     1.0000 0.34370  0.97200  0.02560  Biso   1.000  C
  C165     1.0000 0.02800  0.65630  0.97440  Biso   1.000  C
  C166     1.0000 0.97200  0.34370  0.97440  Biso   1.000  C
  C167     1.0000 0.34370  0.02800  0.97440  Biso   1.000  C
  C168     1.0000 0.65630  0.97200  0.97440  Biso   1.000  C
  C169     1.0000 0.52800  0.84370  0.52560  Biso   1.000  C
  C170     1.0000 0.15630  0.52800  0.52560  Biso   1.000  C
  C171     1.0000 0.47200  0.15630  0.52560  Biso   1.000  C
  C172     1.0000 0.84370  0.47200  0.52560  Biso   1.000  C
  C173     1.0000 0.52800  0.15630  0.47440  Biso   1.000  C
  C174     1.0000 0.47200  0.84370  0.47440  Biso   1.000  C
  C175     1.0000 0.84370  0.52800  0.47440  Biso   1.000  C
  C176     1.0000 0.15630  0.47200  0.47440  Biso   1.000  C
  C177     1.0000 0.94340  0.59170  0.95130  Biso   1.000  C
  C178     1.0000 0.40830  0.94340  0.95130  Biso   1.000  C
  C179     1.0000 0.05660  0.40830  0.95130  Biso   1.000  C
  C180     1.0000 0.59170  0.05660  0.95130  Biso   1.000  C
  C181     1.0000 0.94340  0.40830  0.04870  Biso   1.000  C
  C182     1.0000 0.05660  0.59170  0.04870  Biso   1.000  C
  C183     1.0000 0.59170  0.94340  0.04870  Biso   1.000  C
  C184     1.0000 0.40830  0.05660  0.04870  Biso   1.000  C
  C185     1.0000 0.44340  0.09170  0.45130  Biso   1.000  C
  C186     1.0000 0.90830  0.44340  0.45130  Biso   1.000  C
  C187     1.0000 0.55660  0.90830  0.45130  Biso   1.000  C
  C188     1.0000 0.09170  0.55660  0.45130  Biso   1.000  C
  C189     1.0000 0.44340  0.90830  0.54870  Biso   1.000  C
  C190     1.0000 0.55660  0.09170  0.54870  Biso   1.000  C
  C191     1.0000 0.09170  0.44340  0.54870  Biso   1.000  C
  C192     1.0000 0.90830  0.55660  0.54870  Biso   1.000  C
  C193     1.0000 0.05660  0.40830  0.04870  Biso   1.000  C
  C194     1.0000 0.59170  0.05660  0.04870  Biso   1.000  C
  C195     1.0000 0.94340  0.59170  0.04870  Biso   1.000  C
  C196     1.0000 0.40830  0.94340  0.04870  Biso   1.000  C
  C197     1.0000 0.05660  0.59170  0.95130  Biso   1.000  C
  C198     1.0000 0.94340  0.40830  0.95130  Biso   1.000  C
  C199     1.0000 0.40830  0.05660  0.95130  Biso   1.000  C
  C200     1.0000 0.59170  0.94340  0.95130  Biso   1.000  C
  C201     1.0000 0.55660  0.90830  0.54870  Biso   1.000  C
  C202     1.0000 0.09170  0.55660  0.54870  Biso   1.000  C
  C203     1.0000 0.44340  0.09170  0.54870  Biso   1.000  C
  C204     1.0000 0.90830  0.44340  0.54870  Biso   1.000  C
  C205     1.0000 0.55660  0.09170  0.45130  Biso   1.000  C
  C206     1.0000 0.44340  0.90830  0.45130  Biso   1.000  C
  C207     1.0000 0.90830  0.55660  0.45130  Biso   1.000  C
  C208     1.0000 0.09170  0.44340  0.45130  Biso   1.000  C
  C209     1.0000 0.91320  0.52840  0.97470  Biso   1.000  C
  C210     1.0000 0.47160  0.91320  0.97470  Biso   1.000  C
  C211     1.0000 0.08680  0.47160  0.97470  Biso   1.000  C
  C212     1.0000 0.52840  0.08680  0.97470  Biso   1.000  C
  C213     1.0000 0.91320  0.47160  0.02530  Biso   1.000  C
  C214     1.0000 0.08680  0.52840  0.02530  Biso   1.000  C
  C215     1.0000 0.52840  0.91320  0.02530  Biso   1.000  C
  C216     1.0000 0.47160  0.08680  0.02530  Biso   1.000  C
  C217     1.0000 0.41320  0.02840  0.47470  Biso   1.000  C
  C218     1.0000 0.97160  0.41320  0.47470  Biso   1.000  C
  C219     1.0000 0.58680  0.97160  0.47470  Biso   1.000  C
  C220     1.0000 0.02840  0.58680  0.47470  Biso   1.000  C
  C221     1.0000 0.41320  0.97160  0.52530  Biso   1.000  C
  C222     1.0000 0.58680  0.02840  0.52530  Biso   1.000  C
  C223     1.0000 0.02840  0.41320  0.52530  Biso   1.000  C
  C224     1.0000 0.97160  0.58680  0.52530  Biso   1.000  C
  C225     1.0000 0.08680  0.47160  0.02530  Biso   1.000  C
  C226     1.0000 0.52840  0.08680  0.02530  Biso   1.000  C
  C227     1.0000 0.91320  0.52840  0.02530  Biso   1.000  C
  C228     1.0000 0.47160  0.91320  0.02530  Biso   1.000  C
  C229     1.0000 0.08680  0.52840  0.97470  Biso   1.000  C
  C230     1.0000 0.91320  0.47160  0.97470  Biso   1.000  C
  C231     1.0000 0.47160  0.08680  0.97470  Biso   1.000  C
  C232     1.0000 0.52840  0.91320  0.97470  Biso   1.000  C
  C233     1.0000 0.58680  0.97160  0.52530  Biso   1.000  C
  C234     1.0000 0.02840  0.58680  0.52530  Biso   1.000  C
  C235     1.0000 0.41320  0.02840  0.52530  Biso   1.000  C
  C236     1.0000 0.97160  0.41320  0.52530  Biso   1.000  C
  C237     1.0000 0.58680  0.02840  0.47470  Biso   1.000  C
  C238     1.0000 0.41320  0.97160  0.47470  Biso   1.000  C
  C239     1.0000 0.97160  0.58680  0.47470  Biso   1.000  C
  C240     1.0000 0.02840  0.41320  0.47470  Biso   1.000  C
  C241     1.0000 0.02850  0.77660  0.97060  Biso   1.000  C
  C242     1.0000 0.22340  0.02850  0.97060  Biso   1.000  C
  C243     1.0000 0.97150  0.22340  0.97060  Biso   1.000  C
  C244     1.0000 0.77660  0.97150  0.97060  Biso   1.000  C
  C245     1.0000 0.02850  0.22340  0.02940  Biso   1.000  C
  C246     1.0000 0.97150  0.77660  0.02940  Biso   1.000  C
  C247     1.0000 0.77660  0.02850  0.02940  Biso   1.000  C
  C248     1.0000 0.22340  0.97150  0.02940  Biso   1.000  C
  C249     1.0000 0.52850  0.27660  0.47060  Biso   1.000  C
  C250     1.0000 0.72340  0.52850  0.47060  Biso   1.000  C
  C251     1.0000 0.47150  0.72340  0.47060  Biso   1.000  C
  C252     1.0000 0.27660  0.47150  0.47060  Biso   1.000  C
  C253     1.0000 0.52850  0.72340  0.52940  Biso   1.000  C
  C254     1.0000 0.47150  0.27660  0.52940  Biso   1.000  C
  C255     1.0000 0.27660  0.52850  0.52940  Biso   1.000  C
  C256     1.0000 0.72340  0.47150  0.52940  Biso   1.000  C
  C257     1.0000 0.97150  0.22340  0.02940  Biso   1.000  C
  C258     1.0000 0.77660  0.97150  0.02940  Biso   1.000  C
  C259     1.0000 0.02850  0.77660  0.02940  Biso   1.000  C
  C260     1.0000 0.22340  0.02850  0.02940  Biso   1.000  C
  C261     1.0000 0.97150  0.77660  0.97060  Biso   1.000  C
  C262     1.0000 0.02850  0.22340  0.97060  Biso   1.000  C
  C263     1.0000 0.22340  0.97150  0.97060  Biso   1.000  C
  C264     1.0000 0.77660  0.02850  0.97060  Biso   1.000  C
  C265     1.0000 0.47150  0.72340  0.52940  Biso   1.000  C
  C266     1.0000 0.27660  0.47150  0.52940  Biso   1.000  C
  C267     1.0000 0.52850  0.27660  0.52940  Biso   1.000  C
  C268     1.0000 0.72340  0.52850  0.52940  Biso   1.000  C
  C269     1.0000 0.47150  0.27660  0.47060  Biso   1.000  C
  C270     1.0000 0.52850  0.72340  0.47060  Biso   1.000  C
  C271     1.0000 0.72340  0.47150  0.47060  Biso   1.000  C
  C272     1.0000 0.27660  0.52850  0.47060  Biso   1.000  C
  C273     1.0000 0.04510  0.84290  0.95070  Biso   1.000  C
  C274     1.0000 0.15710  0.04510  0.95070  Biso   1.000  C
  C275     1.0000 0.95490  0.15710  0.95070  Biso   1.000  C
  C276     1.0000 0.84290  0.95490  0.95070  Biso   1.000  C
  C277     1.0000 0.04510  0.15710  0.04930  Biso   1.000  C
  C278     1.0000 0.95490  0.84290  0.04930  Biso   1.000  C
  C279     1.0000 0.84290  0.04510  0.04930  Biso   1.000  C
  C280     1.0000 0.15710  0.95490  0.04930  Biso   1.000  C
  C281     1.0000 0.54510  0.34290  0.45070  Biso   1.000  C
  C282     1.0000 0.65710  0.54510  0.45070  Biso   1.000  C
  C283     1.0000 0.45490  0.65710  0.45070  Biso   1.000  C
  C284     1.0000 0.34290  0.45490  0.45070  Biso   1.000  C
  C285     1.0000 0.54510  0.65710  0.54930  Biso   1.000  C
  C286     1.0000 0.45490  0.34290  0.54930  Biso   1.000  C
  C287     1.0000 0.34290  0.54510  0.54930  Biso   1.000  C
  C288     1.0000 0.65710  0.45490  0.54930  Biso   1.000  C
  C289     1.0000 0.95490  0.15710  0.04930  Biso   1.000  C
  C290     1.0000 0.84290  0.95490  0.04930  Biso   1.000  C
  C291     1.0000 0.04510  0.84290  0.04930  Biso   1.000  C
  C292     1.0000 0.15710  0.04510  0.04930  Biso   1.000  C
  C293     1.0000 0.95490  0.84290  0.95070  Biso   1.000  C
  C294     1.0000 0.04510  0.15710  0.95070  Biso   1.000  C
  C295     1.0000 0.15710  0.95490  0.95070  Biso   1.000  C
  C296     1.0000 0.84290  0.04510  0.95070  Biso   1.000  C
  C297     1.0000 0.45490  0.65710  0.54930  Biso   1.000  C
  C298     1.0000 0.34290  0.45490  0.54930  Biso   1.000  C
  C299     1.0000 0.54510  0.34290  0.54930  Biso   1.000  C
  C300     1.0000 0.65710  0.54510  0.54930  Biso   1.000  C
  C301     1.0000 0.45490  0.34290  0.45070  Biso   1.000  C
  C302     1.0000 0.54510  0.65710  0.45070  Biso   1.000  C
  C303     1.0000 0.65710  0.45490  0.45070  Biso   1.000  C
  C304     1.0000 0.34290  0.54510  0.45070  Biso   1.000  C
  C305     1.0000 0.07350  0.90070  0.97520  Biso   1.000  C
  C306     1.0000 0.09930  0.07350  0.97520  Biso   1.000  C
  C307     1.0000 0.92650  0.09930  0.97520  Biso   1.000  C
  C308     1.0000 0.90070  0.92650  0.97520  Biso   1.000  C
  C309     1.0000 0.07350  0.09930  0.02480  Biso   1.000  C
  C310     1.0000 0.92650  0.90070  0.02480  Biso   1.000  C
  C311     1.0000 0.90070  0.07350  0.02480  Biso   1.000  C
  C312     1.0000 0.09930  0.92650  0.02480  Biso   1.000  C
  C313     1.0000 0.57350  0.40070  0.47520  Biso   1.000  C
  C314     1.0000 0.59930  0.57350  0.47520  Biso   1.000  C
  C315     1.0000 0.42650  0.59930  0.47520  Biso   1.000  C
  C316     1.0000 0.40070  0.42650  0.47520  Biso   1.000  C
  C317     1.0000 0.57350  0.59930  0.52480  Biso   1.000  C
  C318     1.0000 0.42650  0.40070  0.52480  Biso   1.000  C
  C319     1.0000 0.40070  0.57350  0.52480  Biso   1.000  C
  C320     1.0000 0.59930  0.42650  0.52480  Biso   1.000  C
  C321     1.0000 0.92650  0.09930  0.02480  Biso   1.000  C
  C322     1.0000 0.90070  0.92650  0.02480  Biso   1.000  C
  C323     1.0000 0.07350  0.90070  0.02480  Biso   1.000  C
  C324     1.0000 0.09930  0.07350  0.02480  Biso   1.000  C
  C325     1.0000 0.92650  0.90070  0.97520  Biso   1.000  C
  C326     1.0000 0.07350  0.09930  0.97520  Biso   1.000  C
  C327     1.0000 0.09930  0.92650  0.97520  Biso   1.000  C
  C328     1.0000 0.90070  0.07350  0.97520  Biso   1.000  C
  C329     1.0000 0.42650  0.59930  0.52480  Biso   1.000  C
  C330     1.0000 0.40070  0.42650  0.52480  Biso   1.000  C
  C331     1.0000 0.57350  0.40070  0.52480  Biso   1.000  C
  C332     1.0000 0.59930  0.57350  0.52480  Biso   1.000  C
  C333     1.0000 0.42650  0.40070  0.47520  Biso   1.000  C
  C334     1.0000 0.57350  0.59930  0.47520  Biso   1.000  C
  C335     1.0000 0.59930  0.42650  0.47520  Biso   1.000  C
  C336     1.0000 0.40070  0.57350  0.47520  Biso   1.000  C
  O81      1.0000 0.93280  0.50000  0.00000  Biso   1.000  O
  O82      1.0000 0.50000  0.93280  0.00000  Biso   1.000  O
  O83      1.0000 0.06720  0.50000  0.00000  Biso   1.000  O
  O84      1.0000 0.50000  0.06720  0.00000  Biso   1.000  O
  O85      1.0000 0.43280  0.00000  0.50000  Biso   1.000  O
  O86      1.0000 0.00000  0.43280  0.50000  Biso   1.000  O
  O87      1.0000 0.56720  0.00000  0.50000  Biso   1.000  O
  O88      1.0000 0.00000  0.56720  0.50000  Biso   1.000  O
