data_image0
_cell_length_a       23.9647
_cell_length_b       23.9647
_cell_length_c       40.979
_cell_angle_alpha    90
_cell_angle_beta     90
_cell_angle_gamma    120

_symmetry_space_group_name_H-M    "P 1"
_symmetry_int_tables_number       1

loop_
  _symmetry_equiv_pos_as_xyz
  'x, y, z'

loop_
  _atom_site_label
  _atom_site_occupancy
  _atom_site_fract_x
  _atom_site_fract_y
  _atom_site_fract_z
  _atom_site_thermal_displace_type
  _atom_site_B_iso_or_equiv
  _atom_site_type_symbol
  Cu1      1.0000 0.69691  0.95120  0.28268  Biso   1.000  Cu
  Cu2      1.0000 0.04880  0.74571  0.28268  Biso   1.000  Cu
  Cu3      1.0000 0.25429  0.30309  0.28268  Biso   1.000  Cu
  Cu4      1.0000 0.95120  0.69691  0.21732  Biso   1.000  Cu
  Cu5      1.0000 0.74571  0.04880  0.21732  Biso   1.000  Cu
  Cu6      1.0000 0.30309  0.25429  0.21732  Biso   1.000  Cu
  Cu7      1.0000 0.36358  0.28453  0.61601  Biso   1.000  Cu
  Cu8      1.0000 0.71547  0.07904  0.61601  Biso   1.000  Cu
  Cu9      1.0000 0.92096  0.63642  0.61601  Biso   1.000  Cu
  Cu10     1.0000 0.61787  0.03024  0.55065  Biso   1.000  Cu
  Cu11     1.0000 0.41238  0.38213  0.55065  Biso   1.000  Cu
  Cu12     1.0000 0.96976  0.58762  0.55065  Biso   1.000  Cu
  Cu13     1.0000 0.03024  0.61787  0.94935  Biso   1.000  Cu
  Cu14     1.0000 0.38213  0.41238  0.94935  Biso   1.000  Cu
  Cu15     1.0000 0.58762  0.96976  0.94935  Biso   1.000  Cu
  Cu16     1.0000 0.28453  0.36358  0.88399  Biso   1.000  Cu
  Cu17     1.0000 0.07904  0.71547  0.88399  Biso   1.000  Cu
  Cu18     1.0000 0.63642  0.92096  0.88399  Biso   1.000  Cu
  Cu19     1.0000 0.30309  0.04880  0.71732  Biso   1.000  Cu
  Cu20     1.0000 0.95120  0.25429  0.71732  Biso   1.000  Cu
  Cu21     1.0000 0.74571  0.69691  0.71732  Biso   1.000  Cu
  Cu22     1.0000 0.04880  0.30309  0.78268  Biso   1.000  Cu
  Cu23     1.0000 0.25429  0.95120  0.78268  Biso   1.000  Cu
  Cu24     1.0000 0.69691  0.74571  0.78268  Biso   1.000  Cu
  Cu25     1.0000 0.96976  0.38213  0.05065  Biso   1.000  Cu
  Cu26     1.0000 0.61787  0.58762  0.05065  Biso   1.000  Cu
  Cu27     1.0000 0.41238  0.03024  0.05065  Biso   1.000  Cu
  Cu28     1.0000 0.71547  0.63642  0.11601  Biso   1.000  Cu
  Cu29     1.0000 0.92096  0.28453  0.11601  Biso   1.000  Cu
  Cu30     1.0000 0.36358  0.07904  0.11601  Biso   1.000  Cu
  Cu31     1.0000 0.63642  0.71547  0.38399  Biso   1.000  Cu
  Cu32     1.0000 0.28453  0.92096  0.38399  Biso   1.000  Cu
  Cu33     1.0000 0.07904  0.36358  0.38399  Biso   1.000  Cu
  Cu34     1.0000 0.38213  0.96976  0.44935  Biso   1.000  Cu
  Cu35     1.0000 0.58762  0.61787  0.44935  Biso   1.000  Cu
  Cu36     1.0000 0.03024  0.41238  0.44935  Biso   1.000  Cu
  Cu37     1.0000 0.76632  0.20178  0.23235  Biso   1.000  Cu
  Cu38     1.0000 0.79822  0.56454  0.23235  Biso   1.000  Cu
  Cu39     1.0000 0.43546  0.23368  0.23235  Biso   1.000  Cu
  Cu40     1.0000 0.20178  0.76632  0.26765  Biso   1.000  Cu
  Cu41     1.0000 0.56454  0.79822  0.26765  Biso   1.000  Cu
  Cu42     1.0000 0.23368  0.43546  0.26765  Biso   1.000  Cu
  Cu43     1.0000 0.43299  0.53511  0.56568  Biso   1.000  Cu
  Cu44     1.0000 0.46489  0.89787  0.56568  Biso   1.000  Cu
  Cu45     1.0000 0.10213  0.56701  0.56568  Biso   1.000  Cu
  Cu46     1.0000 0.86845  0.09965  0.60098  Biso   1.000  Cu
  Cu47     1.0000 0.23121  0.13155  0.60098  Biso   1.000  Cu
  Cu48     1.0000 0.90035  0.76879  0.60098  Biso   1.000  Cu
  Cu49     1.0000 0.09965  0.86845  0.89902  Biso   1.000  Cu
  Cu50     1.0000 0.13155  0.23121  0.89902  Biso   1.000  Cu
  Cu51     1.0000 0.76879  0.90035  0.89902  Biso   1.000  Cu
  Cu52     1.0000 0.53511  0.43299  0.93432  Biso   1.000  Cu
  Cu53     1.0000 0.89787  0.46489  0.93432  Biso   1.000  Cu
  Cu54     1.0000 0.56701  0.10213  0.93432  Biso   1.000  Cu
  Cu55     1.0000 0.23368  0.79822  0.76765  Biso   1.000  Cu
  Cu56     1.0000 0.20178  0.43546  0.76765  Biso   1.000  Cu
  Cu57     1.0000 0.56454  0.76632  0.76765  Biso   1.000  Cu
  Cu58     1.0000 0.79822  0.23368  0.73235  Biso   1.000  Cu
  Cu59     1.0000 0.43546  0.20178  0.73235  Biso   1.000  Cu
  Cu60     1.0000 0.76632  0.56454  0.73235  Biso   1.000  Cu
  Cu61     1.0000 0.90035  0.13155  0.10098  Biso   1.000  Cu
  Cu62     1.0000 0.86845  0.76879  0.10098  Biso   1.000  Cu
  Cu63     1.0000 0.23121  0.09965  0.10098  Biso   1.000  Cu
  Cu64     1.0000 0.46489  0.56701  0.06568  Biso   1.000  Cu
  Cu65     1.0000 0.10213  0.53511  0.06568  Biso   1.000  Cu
  Cu66     1.0000 0.43299  0.89787  0.06568  Biso   1.000  Cu
  Cu67     1.0000 0.56701  0.46489  0.43432  Biso   1.000  Cu
  Cu68     1.0000 0.53511  0.10213  0.43432  Biso   1.000  Cu
  Cu69     1.0000 0.89787  0.43299  0.43432  Biso   1.000  Cu
  Cu70     1.0000 0.13155  0.90035  0.39902  Biso   1.000  Cu
  Cu71     1.0000 0.76879  0.86845  0.39902  Biso   1.000  Cu
  Cu72     1.0000 0.09965  0.23121  0.39902  Biso   1.000  Cu
  Cu73     1.0000 0.66660  0.83340  0.33340  Biso   1.000  Cu
  Cu74     1.0000 0.16660  0.83320  0.33340  Biso   1.000  Cu
  Cu75     1.0000 0.16680  0.33340  0.33340  Biso   1.000  Cu
  Cu76     1.0000 0.83340  0.66660  0.16660  Biso   1.000  Cu
  Cu77     1.0000 0.83320  0.16660  0.16660  Biso   1.000  Cu
  Cu78     1.0000 0.33340  0.16680  0.16660  Biso   1.000  Cu
  Cu79     1.0000 0.33327  0.16673  0.66673  Biso   1.000  Cu
  Cu80     1.0000 0.83327  0.16653  0.66673  Biso   1.000  Cu
  Cu81     1.0000 0.83347  0.66673  0.66673  Biso   1.000  Cu
  Cu82     1.0000 0.50007  0.99993  0.49993  Biso   1.000  Cu
  Cu83     1.0000 0.49987  0.49993  0.49993  Biso   1.000  Cu
  Cu84     1.0000 0.00007  0.50013  0.49993  Biso   1.000  Cu
  Cu85     1.0000 0.99993  0.50007  0.00007  Biso   1.000  Cu
  Cu86     1.0000 0.49993  0.49987  0.00007  Biso   1.000  Cu
  Cu87     1.0000 0.50013  0.00007  0.00007  Biso   1.000  Cu
  Cu88     1.0000 0.16673  0.33327  0.83327  Biso   1.000  Cu
  Cu89     1.0000 0.16653  0.83327  0.83327  Biso   1.000  Cu
  Cu90     1.0000 0.66673  0.83347  0.83327  Biso   1.000  Cu
  Cl1      1.0000 0.79990  0.00000  0.25000  Biso   1.000  Cl
  Cl2      1.0000 0.00000  0.79990  0.25000  Biso   1.000  Cl
  Cl3      1.0000 0.20010  0.20010  0.25000  Biso   1.000  Cl
  Cl4      1.0000 0.46657  0.33333  0.58333  Biso   1.000  Cl
  Cl5      1.0000 0.66667  0.13323  0.58333  Biso   1.000  Cl
  Cl6      1.0000 0.86677  0.53343  0.58333  Biso   1.000  Cl
  Cl7      1.0000 0.13323  0.66667  0.91667  Biso   1.000  Cl
  Cl8      1.0000 0.33333  0.46657  0.91667  Biso   1.000  Cl
  Cl9      1.0000 0.53343  0.86677  0.91667  Biso   1.000  Cl
  Cl10     1.0000 0.20010  0.00000  0.75000  Biso   1.000  Cl
  Cl11     1.0000 0.00000  0.20010  0.75000  Biso   1.000  Cl
  Cl12     1.0000 0.79990  0.79990  0.75000  Biso   1.000  Cl
  Cl13     1.0000 0.86677  0.33333  0.08333  Biso   1.000  Cl
  Cl14     1.0000 0.66667  0.53343  0.08333  Biso   1.000  Cl
  Cl15     1.0000 0.46657  0.13323  0.08333  Biso   1.000  Cl
  Cl16     1.0000 0.53343  0.66667  0.41667  Biso   1.000  Cl
  Cl17     1.0000 0.33333  0.86677  0.41667  Biso   1.000  Cl
  Cl18     1.0000 0.13323  0.46657  0.41667  Biso   1.000  Cl
  N1       1.0000 0.69360  0.03330  0.28438  Biso   1.000  N
  N2       1.0000 0.96670  0.66030  0.28438  Biso   1.000  N
  N3       1.0000 0.33970  0.30640  0.28438  Biso   1.000  N
  N4       1.0000 0.03330  0.69360  0.21562  Biso   1.000  N
  N5       1.0000 0.66030  0.96670  0.21562  Biso   1.000  N
  N6       1.0000 0.30640  0.33970  0.21562  Biso   1.000  N
  N7       1.0000 0.36027  0.36663  0.61771  Biso   1.000  N
  N8       1.0000 0.63337  0.99363  0.61771  Biso   1.000  N
  N9       1.0000 0.00637  0.63973  0.61771  Biso   1.000  N
  N10      1.0000 0.69997  0.02693  0.54895  Biso   1.000  N
  N11      1.0000 0.32697  0.30003  0.54895  Biso   1.000  N
  N12      1.0000 0.97307  0.67303  0.54895  Biso   1.000  N
  N13      1.0000 0.02693  0.69997  0.95105  Biso   1.000  N
  N14      1.0000 0.30003  0.32697  0.95105  Biso   1.000  N
  N15      1.0000 0.67303  0.97307  0.95105  Biso   1.000  N
  N16      1.0000 0.36663  0.36027  0.88229  Biso   1.000  N
  N17      1.0000 0.99363  0.63337  0.88229  Biso   1.000  N
  N18      1.0000 0.63973  0.00637  0.88229  Biso   1.000  N
  N19      1.0000 0.30640  0.96670  0.71562  Biso   1.000  N
  N20      1.0000 0.03330  0.33970  0.71562  Biso   1.000  N
  N21      1.0000 0.66030  0.69360  0.71562  Biso   1.000  N
  N22      1.0000 0.96670  0.30640  0.78438  Biso   1.000  N
  N23      1.0000 0.33970  0.03330  0.78438  Biso   1.000  N
  N24      1.0000 0.69360  0.66030  0.78438  Biso   1.000  N
  N25      1.0000 0.97307  0.30003  0.04895  Biso   1.000  N
  N26      1.0000 0.69997  0.67303  0.04895  Biso   1.000  N
  N27      1.0000 0.32697  0.02693  0.04895  Biso   1.000  N
  N28      1.0000 0.63337  0.63973  0.11771  Biso   1.000  N
  N29      1.0000 0.00637  0.36663  0.11771  Biso   1.000  N
  N30      1.0000 0.36027  0.99363  0.11771  Biso   1.000  N
  N31      1.0000 0.63973  0.63337  0.38229  Biso   1.000  N
  N32      1.0000 0.36663  0.00637  0.38229  Biso   1.000  N
  N33      1.0000 0.99363  0.36027  0.38229  Biso   1.000  N
  N34      1.0000 0.30003  0.97307  0.45105  Biso   1.000  N
  N35      1.0000 0.67303  0.69997  0.45105  Biso   1.000  N
  N36      1.0000 0.02693  0.32697  0.45105  Biso   1.000  N
  N37      1.0000 0.72020  0.07340  0.25935  Biso   1.000  N
  N38      1.0000 0.92660  0.64680  0.25935  Biso   1.000  N
  N39      1.0000 0.35320  0.27980  0.25935  Biso   1.000  N
  N40      1.0000 0.07340  0.72020  0.24065  Biso   1.000  N
  N41      1.0000 0.64680  0.92660  0.24065  Biso   1.000  N
  N42      1.0000 0.27980  0.35320  0.24065  Biso   1.000  N
  N43      1.0000 0.38687  0.40673  0.59268  Biso   1.000  N
  N44      1.0000 0.59327  0.98013  0.59268  Biso   1.000  N
  N45      1.0000 0.01987  0.61313  0.59268  Biso   1.000  N
  N46      1.0000 0.74007  0.05353  0.57398  Biso   1.000  N
  N47      1.0000 0.31347  0.25993  0.57398  Biso   1.000  N
  N48      1.0000 0.94647  0.68653  0.57398  Biso   1.000  N
  N49      1.0000 0.05353  0.74007  0.92602  Biso   1.000  N
  N50      1.0000 0.25993  0.31347  0.92602  Biso   1.000  N
  N51      1.0000 0.68653  0.94647  0.92602  Biso   1.000  N
  N52      1.0000 0.40673  0.38687  0.90732  Biso   1.000  N
  N53      1.0000 0.98013  0.59327  0.90732  Biso   1.000  N
  N54      1.0000 0.61313  0.01987  0.90732  Biso   1.000  N
  N55      1.0000 0.27980  0.92660  0.74065  Biso   1.000  N
  N56      1.0000 0.07340  0.35320  0.74065  Biso   1.000  N
  N57      1.0000 0.64680  0.72020  0.74065  Biso   1.000  N
  N58      1.0000 0.92660  0.27980  0.75935  Biso   1.000  N
  N59      1.0000 0.35320  0.07340  0.75935  Biso   1.000  N
  N60      1.0000 0.72020  0.64680  0.75935  Biso   1.000  N
  N61      1.0000 0.94647  0.25993  0.07398  Biso   1.000  N
  N62      1.0000 0.74007  0.68653  0.07398  Biso   1.000  N
  N63      1.0000 0.31347  0.05353  0.07398  Biso   1.000  N
  N64      1.0000 0.59327  0.61313  0.09268  Biso   1.000  N
  N65      1.0000 0.01987  0.40673  0.09268  Biso   1.000  N
  N66      1.0000 0.38687  0.98013  0.09268  Biso   1.000  N
  N67      1.0000 0.61313  0.59327  0.40732  Biso   1.000  N
  N68      1.0000 0.40673  0.01987  0.40732  Biso   1.000  N
  N69      1.0000 0.98013  0.38687  0.40732  Biso   1.000  N
  N70      1.0000 0.25993  0.94647  0.42602  Biso   1.000  N
  N71      1.0000 0.68653  0.74007  0.42602  Biso   1.000  N
  N72      1.0000 0.05353  0.31347  0.42602  Biso   1.000  N
  N73      1.0000 0.72180  0.12890  0.26416  Biso   1.000  N
  N74      1.0000 0.87110  0.59290  0.26416  Biso   1.000  N
  N75      1.0000 0.40710  0.27820  0.26416  Biso   1.000  N
  N76      1.0000 0.12890  0.72180  0.23584  Biso   1.000  N
  N77      1.0000 0.59290  0.87110  0.23584  Biso   1.000  N
  N78      1.0000 0.27820  0.40710  0.23584  Biso   1.000  N
  N79      1.0000 0.38847  0.46223  0.59749  Biso   1.000  N
  N80      1.0000 0.53777  0.92623  0.59749  Biso   1.000  N
  N81      1.0000 0.07377  0.61153  0.59749  Biso   1.000  N
  N82      1.0000 0.79557  0.05513  0.56917  Biso   1.000  N
  N83      1.0000 0.25957  0.20443  0.56917  Biso   1.000  N
  N84      1.0000 0.94487  0.74043  0.56917  Biso   1.000  N
  N85      1.0000 0.05513  0.79557  0.93083  Biso   1.000  N
  N86      1.0000 0.20443  0.25957  0.93083  Biso   1.000  N
  N87      1.0000 0.74043  0.94487  0.93083  Biso   1.000  N
  N88      1.0000 0.46223  0.38847  0.90251  Biso   1.000  N
  N89      1.0000 0.92623  0.53777  0.90251  Biso   1.000  N
  N90      1.0000 0.61153  0.07377  0.90251  Biso   1.000  N
  N91      1.0000 0.27820  0.87110  0.73584  Biso   1.000  N
  N92      1.0000 0.12890  0.40710  0.73584  Biso   1.000  N
  N93      1.0000 0.59290  0.72180  0.73584  Biso   1.000  N
  N94      1.0000 0.87110  0.27820  0.76416  Biso   1.000  N
  N95      1.0000 0.40710  0.12890  0.76416  Biso   1.000  N
  N96      1.0000 0.72180  0.59290  0.76416  Biso   1.000  N
  N97      1.0000 0.94487  0.20443  0.06917  Biso   1.000  N
  N98      1.0000 0.79557  0.74043  0.06917  Biso   1.000  N
  N99      1.0000 0.25957  0.05513  0.06917  Biso   1.000  N
  N100     1.0000 0.53777  0.61153  0.09749  Biso   1.000  N
  N101     1.0000 0.07377  0.46223  0.09749  Biso   1.000  N
  N102     1.0000 0.38847  0.92623  0.09749  Biso   1.000  N
  N103     1.0000 0.61153  0.53777  0.40251  Biso   1.000  N
  N104     1.0000 0.46223  0.07377  0.40251  Biso   1.000  N
  N105     1.0000 0.92623  0.38847  0.40251  Biso   1.000  N
  N106     1.0000 0.20443  0.94487  0.43083  Biso   1.000  N
  N107     1.0000 0.74043  0.79557  0.43083  Biso   1.000  N
  N108     1.0000 0.05513  0.25957  0.43083  Biso   1.000  N
  N109     1.0000 0.77960  0.93460  0.36568  Biso   1.000  N
  N110     1.0000 0.06540  0.84500  0.36568  Biso   1.000  N
  N111     1.0000 0.15500  0.22040  0.36568  Biso   1.000  N
  N112     1.0000 0.93460  0.77960  0.13432  Biso   1.000  N
  N113     1.0000 0.84500  0.06540  0.13432  Biso   1.000  N
  N114     1.0000 0.22040  0.15500  0.13432  Biso   1.000  N
  N115     1.0000 0.44627  0.26793  0.69901  Biso   1.000  N
  N116     1.0000 0.73207  0.17833  0.69901  Biso   1.000  N
  N117     1.0000 0.82167  0.55373  0.69901  Biso   1.000  N
  N118     1.0000 0.60127  0.11293  0.46765  Biso   1.000  N
  N119     1.0000 0.51167  0.39873  0.46765  Biso   1.000  N
  N120     1.0000 0.88707  0.48833  0.46765  Biso   1.000  N
  N121     1.0000 0.11293  0.60127  0.03235  Biso   1.000  N
  N122     1.0000 0.39873  0.51167  0.03235  Biso   1.000  N
  N123     1.0000 0.48833  0.88707  0.03235  Biso   1.000  N
  N124     1.0000 0.26793  0.44627  0.80099  Biso   1.000  N
  N125     1.0000 0.17833  0.73207  0.80099  Biso   1.000  N
  N126     1.0000 0.55373  0.82167  0.80099  Biso   1.000  N
  N127     1.0000 0.22040  0.06540  0.63432  Biso   1.000  N
  N128     1.0000 0.93460  0.15500  0.63432  Biso   1.000  N
  N129     1.0000 0.84500  0.77960  0.63432  Biso   1.000  N
  N130     1.0000 0.06540  0.22040  0.86568  Biso   1.000  N
  N131     1.0000 0.15500  0.93460  0.86568  Biso   1.000  N
  N132     1.0000 0.77960  0.84500  0.86568  Biso   1.000  N
  N133     1.0000 0.88707  0.39873  0.96765  Biso   1.000  N
  N134     1.0000 0.60127  0.48833  0.96765  Biso   1.000  N
  N135     1.0000 0.51167  0.11293  0.96765  Biso   1.000  N
  N136     1.0000 0.73207  0.55373  0.19901  Biso   1.000  N
  N137     1.0000 0.82167  0.26793  0.19901  Biso   1.000  N
  N138     1.0000 0.44627  0.17833  0.19901  Biso   1.000  N
  N139     1.0000 0.55373  0.73207  0.30099  Biso   1.000  N
  N140     1.0000 0.26793  0.82167  0.30099  Biso   1.000  N
  N141     1.0000 0.17833  0.44627  0.30099  Biso   1.000  N
  N142     1.0000 0.39873  0.88707  0.53235  Biso   1.000  N
  N143     1.0000 0.48833  0.60127  0.53235  Biso   1.000  N
  N144     1.0000 0.11293  0.51167  0.53235  Biso   1.000  N
  N145     1.0000 0.73560  0.92030  0.34300  Biso   1.000  N
  N146     1.0000 0.07970  0.81530  0.34300  Biso   1.000  N
  N147     1.0000 0.18470  0.26440  0.34300  Biso   1.000  N
  N148     1.0000 0.92030  0.73560  0.15700  Biso   1.000  N
  N149     1.0000 0.81530  0.07970  0.15700  Biso   1.000  N
  N150     1.0000 0.26440  0.18470  0.15700  Biso   1.000  N
  N151     1.0000 0.40227  0.25363  0.67633  Biso   1.000  N
  N152     1.0000 0.74637  0.14863  0.67633  Biso   1.000  N
  N153     1.0000 0.85137  0.59773  0.67633  Biso   1.000  N
  N154     1.0000 0.58697  0.06893  0.49033  Biso   1.000  N
  N155     1.0000 0.48197  0.41303  0.49033  Biso   1.000  N
  N156     1.0000 0.93107  0.51803  0.49033  Biso   1.000  N
  N157     1.0000 0.06893  0.58697  0.00967  Biso   1.000  N
  N158     1.0000 0.41303  0.48197  0.00967  Biso   1.000  N
  N159     1.0000 0.51803  0.93107  0.00967  Biso   1.000  N
  N160     1.0000 0.25363  0.40227  0.82367  Biso   1.000  N
  N161     1.0000 0.14863  0.74637  0.82367  Biso   1.000  N
  N162     1.0000 0.59773  0.85137  0.82367  Biso   1.000  N
  N163     1.0000 0.26440  0.07970  0.65700  Biso   1.000  N
  N164     1.0000 0.92030  0.18470  0.65700  Biso   1.000  N
  N165     1.0000 0.81530  0.73560  0.65700  Biso   1.000  N
  N166     1.0000 0.07970  0.26440  0.84300  Biso   1.000  N
  N167     1.0000 0.18470  0.92030  0.84300  Biso   1.000  N
  N168     1.0000 0.73560  0.81530  0.84300  Biso   1.000  N
  N169     1.0000 0.93107  0.41303  0.99033  Biso   1.000  N
  N170     1.0000 0.58697  0.51803  0.99033  Biso   1.000  N
  N171     1.0000 0.48197  0.06893  0.99033  Biso   1.000  N
  N172     1.0000 0.74637  0.59773  0.17633  Biso   1.000  N
  N173     1.0000 0.85137  0.25363  0.17633  Biso   1.000  N
  N174     1.0000 0.40227  0.14863  0.17633  Biso   1.000  N
  N175     1.0000 0.59773  0.74637  0.32367  Biso   1.000  N
  N176     1.0000 0.25363  0.85137  0.32367  Biso   1.000  N
  N177     1.0000 0.14863  0.40227  0.32367  Biso   1.000  N
  N178     1.0000 0.41303  0.93107  0.50967  Biso   1.000  N
  N179     1.0000 0.51803  0.58697  0.50967  Biso   1.000  N
  N180     1.0000 0.06893  0.48197  0.50967  Biso   1.000  N
  N181     1.0000 0.74760  0.97010  0.32399  Biso   1.000  N
  N182     1.0000 0.02990  0.77750  0.32399  Biso   1.000  N
  N183     1.0000 0.22250  0.25240  0.32399  Biso   1.000  N
  N184     1.0000 0.97010  0.74760  0.17601  Biso   1.000  N
  N185     1.0000 0.77750  0.02990  0.17601  Biso   1.000  N
  N186     1.0000 0.25240  0.22250  0.17601  Biso   1.000  N
  N187     1.0000 0.41427  0.30343  0.65732  Biso   1.000  N
  N188     1.0000 0.69657  0.11083  0.65732  Biso   1.000  N
  N189     1.0000 0.88917  0.58573  0.65732  Biso   1.000  N
  N190     1.0000 0.63677  0.08093  0.50934  Biso   1.000  N
  N191     1.0000 0.44417  0.36323  0.50934  Biso   1.000  N
  N192     1.0000 0.91907  0.55583  0.50934  Biso   1.000  N
  N193     1.0000 0.08093  0.63677  0.99066  Biso   1.000  N
  N194     1.0000 0.36323  0.44417  0.99066  Biso   1.000  N
  N195     1.0000 0.55583  0.91907  0.99066  Biso   1.000  N
  N196     1.0000 0.30343  0.41427  0.84268  Biso   1.000  N
  N197     1.0000 0.11083  0.69657  0.84268  Biso   1.000  N
  N198     1.0000 0.58573  0.88917  0.84268  Biso   1.000  N
  N199     1.0000 0.25240  0.02990  0.67601  Biso   1.000  N
  N200     1.0000 0.97010  0.22250  0.67601  Biso   1.000  N
  N201     1.0000 0.77750  0.74760  0.67601  Biso   1.000  N
  N202     1.0000 0.02990  0.25240  0.82399  Biso   1.000  N
  N203     1.0000 0.22250  0.97010  0.82399  Biso   1.000  N
  N204     1.0000 0.74760  0.77750  0.82399  Biso   1.000  N
  N205     1.0000 0.91907  0.36323  0.00934  Biso   1.000  N
  N206     1.0000 0.63677  0.55583  0.00934  Biso   1.000  N
  N207     1.0000 0.44417  0.08093  0.00934  Biso   1.000  N
  N208     1.0000 0.69657  0.58573  0.15732  Biso   1.000  N
  N209     1.0000 0.88917  0.30343  0.15732  Biso   1.000  N
  N210     1.0000 0.41427  0.11083  0.15732  Biso   1.000  N
  N211     1.0000 0.58573  0.69657  0.34268  Biso   1.000  N
  N212     1.0000 0.30343  0.88917  0.34268  Biso   1.000  N
  N213     1.0000 0.11083  0.41427  0.34268  Biso   1.000  N
  N214     1.0000 0.36323  0.91907  0.49066  Biso   1.000  N
  N215     1.0000 0.55583  0.63677  0.49066  Biso   1.000  N
  N216     1.0000 0.08093  0.44417  0.49066  Biso   1.000  N
  O1       1.0000 0.56040  0.01120  0.39245  Biso   1.000  O
  O2       1.0000 0.98880  0.54920  0.39245  Biso   1.000  O
  O3       1.0000 0.45080  0.43960  0.39245  Biso   1.000  O
  O4       1.0000 0.01120  0.56040  0.10755  Biso   1.000  O
  O5       1.0000 0.54920  0.98880  0.10755  Biso   1.000  O
  O6       1.0000 0.43960  0.45080  0.10755  Biso   1.000  O
  O7       1.0000 0.22707  0.34453  0.72578  Biso   1.000  O
  O8       1.0000 0.65547  0.88253  0.72578  Biso   1.000  O
  O9       1.0000 0.11747  0.77293  0.72578  Biso   1.000  O
  O10      1.0000 0.67787  0.89373  0.44088  Biso   1.000  O
  O11      1.0000 0.21587  0.32213  0.44088  Biso   1.000  O
  O12      1.0000 0.10627  0.78413  0.44088  Biso   1.000  O
  O13      1.0000 0.89373  0.67787  0.05912  Biso   1.000  O
  O14      1.0000 0.32213  0.21587  0.05912  Biso   1.000  O
  O15      1.0000 0.78413  0.10627  0.05912  Biso   1.000  O
  O16      1.0000 0.34453  0.22707  0.77422  Biso   1.000  O
  O17      1.0000 0.88253  0.65547  0.77422  Biso   1.000  O
  O18      1.0000 0.77293  0.11747  0.77422  Biso   1.000  O
  O19      1.0000 0.43960  0.98880  0.60755  Biso   1.000  O
  O20      1.0000 0.01120  0.45080  0.60755  Biso   1.000  O
  O21      1.0000 0.54920  0.56040  0.60755  Biso   1.000  O
  O22      1.0000 0.98880  0.43960  0.89245  Biso   1.000  O
  O23      1.0000 0.45080  0.01120  0.89245  Biso   1.000  O
  O24      1.0000 0.56040  0.54920  0.89245  Biso   1.000  O
  O25      1.0000 0.10627  0.32213  0.94088  Biso   1.000  O
  O26      1.0000 0.67787  0.78413  0.94088  Biso   1.000  O
  O27      1.0000 0.21587  0.89373  0.94088  Biso   1.000  O
  O28      1.0000 0.65547  0.77293  0.22578  Biso   1.000  O
  O29      1.0000 0.11747  0.34453  0.22578  Biso   1.000  O
  O30      1.0000 0.22707  0.88253  0.22578  Biso   1.000  O
  O31      1.0000 0.77293  0.65547  0.27422  Biso   1.000  O
  O32      1.0000 0.34453  0.11747  0.27422  Biso   1.000  O
  O33      1.0000 0.88253  0.22707  0.27422  Biso   1.000  O
  O34      1.0000 0.32213  0.10627  0.55912  Biso   1.000  O
  O35      1.0000 0.78413  0.67787  0.55912  Biso   1.000  O
  O36      1.0000 0.89373  0.21587  0.55912  Biso   1.000  O
  H1       1.0000 0.56010  0.98210  0.38050  Biso   1.000  H
  H2       1.0000 0.01790  0.57800  0.38050  Biso   1.000  H
  H3       1.0000 0.42200  0.43990  0.38050  Biso   1.000  H
  H4       1.0000 0.98210  0.56010  0.11950  Biso   1.000  H
  H5       1.0000 0.57800  0.01790  0.11950  Biso   1.000  H
  H6       1.0000 0.43990  0.42200  0.11950  Biso   1.000  H
  H7       1.0000 0.22677  0.31543  0.71383  Biso   1.000  H
  H8       1.0000 0.68457  0.91133  0.71383  Biso   1.000  H
  H9       1.0000 0.08867  0.77323  0.71383  Biso   1.000  H
  H10      1.0000 0.64877  0.89343  0.45283  Biso   1.000  H
  H11      1.0000 0.24467  0.35123  0.45283  Biso   1.000  H
  H12      1.0000 0.10657  0.75533  0.45283  Biso   1.000  H
  H13      1.0000 0.89343  0.64877  0.04717  Biso   1.000  H
  H14      1.0000 0.35123  0.24467  0.04717  Biso   1.000  H
  H15      1.0000 0.75533  0.10657  0.04717  Biso   1.000  H
  H16      1.0000 0.31543  0.22677  0.78617  Biso   1.000  H
  H17      1.0000 0.91133  0.68457  0.78617  Biso   1.000  H
  H18      1.0000 0.77323  0.08867  0.78617  Biso   1.000  H
  H19      1.0000 0.43990  0.01790  0.61950  Biso   1.000  H
  H20      1.0000 0.98210  0.42200  0.61950  Biso   1.000  H
  H21      1.0000 0.57800  0.56010  0.61950  Biso   1.000  H
  H22      1.0000 0.01790  0.43990  0.88050  Biso   1.000  H
  H23      1.0000 0.42200  0.98210  0.88050  Biso   1.000  H
  H24      1.0000 0.56010  0.57800  0.88050  Biso   1.000  H
  H25      1.0000 0.10657  0.35123  0.95283  Biso   1.000  H
  H26      1.0000 0.64877  0.75533  0.95283  Biso   1.000  H
  H27      1.0000 0.24467  0.89343  0.95283  Biso   1.000  H
  H28      1.0000 0.68457  0.77323  0.21383  Biso   1.000  H
  H29      1.0000 0.08867  0.31543  0.21383  Biso   1.000  H
  H30      1.0000 0.22677  0.91133  0.21383  Biso   1.000  H
  H31      1.0000 0.77323  0.68457  0.28617  Biso   1.000  H
  H32      1.0000 0.31543  0.08867  0.28617  Biso   1.000  H
  H33      1.0000 0.91133  0.22677  0.28617  Biso   1.000  H
  H34      1.0000 0.35123  0.10657  0.54717  Biso   1.000  H
  H35      1.0000 0.75533  0.64877  0.54717  Biso   1.000  H
  H36      1.0000 0.89343  0.24467  0.54717  Biso   1.000  H
  O37      1.0000 0.59400  0.11460  0.39922  Biso   1.000  O
  O38      1.0000 0.88540  0.47940  0.39922  Biso   1.000  O
  O39      1.0000 0.52060  0.40600  0.39922  Biso   1.000  O
  O40      1.0000 0.11460  0.59400  0.10078  Biso   1.000  O
  O41      1.0000 0.47940  0.88540  0.10078  Biso   1.000  O
  O42      1.0000 0.40600  0.52060  0.10078  Biso   1.000  O
  O43      1.0000 0.26067  0.44793  0.73255  Biso   1.000  O
  O44      1.0000 0.55207  0.81273  0.73255  Biso   1.000  O
  O45      1.0000 0.18727  0.73933  0.73255  Biso   1.000  O
  O46      1.0000 0.78127  0.92733  0.43411  Biso   1.000  O
  O47      1.0000 0.14607  0.21873  0.43411  Biso   1.000  O
  O48      1.0000 0.07267  0.85393  0.43411  Biso   1.000  O
  O49      1.0000 0.92733  0.78127  0.06589  Biso   1.000  O
  O50      1.0000 0.21873  0.14607  0.06589  Biso   1.000  O
  O51      1.0000 0.85393  0.07267  0.06589  Biso   1.000  O
  O52      1.0000 0.44793  0.26067  0.76745  Biso   1.000  O
  O53      1.0000 0.81273  0.55207  0.76745  Biso   1.000  O
  O54      1.0000 0.73933  0.18727  0.76745  Biso   1.000  O
  O55      1.0000 0.40600  0.88540  0.60078  Biso   1.000  O
  O56      1.0000 0.11460  0.52060  0.60078  Biso   1.000  O
  O57      1.0000 0.47940  0.59400  0.60078  Biso   1.000  O
  O58      1.0000 0.88540  0.40600  0.89922  Biso   1.000  O
  O59      1.0000 0.52060  0.11460  0.89922  Biso   1.000  O
  O60      1.0000 0.59400  0.47940  0.89922  Biso   1.000  O
  O61      1.0000 0.07267  0.21873  0.93411  Biso   1.000  O
  O62      1.0000 0.78127  0.85393  0.93411  Biso   1.000  O
  O63      1.0000 0.14607  0.92733  0.93411  Biso   1.000  O
  O64      1.0000 0.55207  0.73933  0.23255  Biso   1.000  O
  O65      1.0000 0.18727  0.44793  0.23255  Biso   1.000  O
  O66      1.0000 0.26067  0.81273  0.23255  Biso   1.000  O
  O67      1.0000 0.73933  0.55207  0.26745  Biso   1.000  O
  O68      1.0000 0.44793  0.18727  0.26745  Biso   1.000  O
  O69      1.0000 0.81273  0.26067  0.26745  Biso   1.000  O
  O70      1.0000 0.21873  0.07267  0.56589  Biso   1.000  O
  O71      1.0000 0.85393  0.78127  0.56589  Biso   1.000  O
  O72      1.0000 0.92733  0.14607  0.56589  Biso   1.000  O
  O73      1.0000 0.00560  0.11660  0.40214  Biso   1.000  O
  O74      1.0000 0.88340  0.88900  0.40214  Biso   1.000  O
  O75      1.0000 0.11100  0.99440  0.40214  Biso   1.000  O
  O76      1.0000 0.11660  0.00560  0.09786  Biso   1.000  O
  O77      1.0000 0.88900  0.88340  0.09786  Biso   1.000  O
  O78      1.0000 0.99440  0.11100  0.09786  Biso   1.000  O
  O79      1.0000 0.67227  0.44993  0.73547  Biso   1.000  O
  O80      1.0000 0.55007  0.22233  0.73547  Biso   1.000  O
  O81      1.0000 0.77767  0.32773  0.73547  Biso   1.000  O
  O82      1.0000 0.78327  0.33893  0.43119  Biso   1.000  O
  O83      1.0000 0.55567  0.21673  0.43119  Biso   1.000  O
  O84      1.0000 0.66107  0.44433  0.43119  Biso   1.000  O
  O85      1.0000 0.33893  0.78327  0.06881  Biso   1.000  O
  O86      1.0000 0.21673  0.55567  0.06881  Biso   1.000  O
  O87      1.0000 0.44433  0.66107  0.06881  Biso   1.000  O
  O88      1.0000 0.44993  0.67227  0.76453  Biso   1.000  O
  O89      1.0000 0.22233  0.55007  0.76453  Biso   1.000  O
  O90      1.0000 0.32773  0.77767  0.76453  Biso   1.000  O
  O91      1.0000 0.99440  0.88340  0.59786  Biso   1.000  O
  O92      1.0000 0.11660  0.11100  0.59786  Biso   1.000  O
  O93      1.0000 0.88900  0.00560  0.59786  Biso   1.000  O
  O94      1.0000 0.88340  0.99440  0.90214  Biso   1.000  O
  O95      1.0000 0.11100  0.11660  0.90214  Biso   1.000  O
  O96      1.0000 0.00560  0.88900  0.90214  Biso   1.000  O
  O97      1.0000 0.66107  0.21673  0.93119  Biso   1.000  O
  O98      1.0000 0.78327  0.44433  0.93119  Biso   1.000  O
  O99      1.0000 0.55567  0.33893  0.93119  Biso   1.000  O
  O100     1.0000 0.55007  0.32773  0.23547  Biso   1.000  O
  O101     1.0000 0.77767  0.44993  0.23547  Biso   1.000  O
  O102     1.0000 0.67227  0.22233  0.23547  Biso   1.000  O
  O103     1.0000 0.32773  0.55007  0.26453  Biso   1.000  O
  O104     1.0000 0.44993  0.77767  0.26453  Biso   1.000  O
  O105     1.0000 0.22233  0.67227  0.26453  Biso   1.000  O
  O106     1.0000 0.21673  0.66107  0.56881  Biso   1.000  O
  O107     1.0000 0.44433  0.78327  0.56881  Biso   1.000  O
  O108     1.0000 0.33893  0.55567  0.56881  Biso   1.000  O
  O109     1.0000 0.02120  0.19620  0.36968  Biso   1.000  O
  O110     1.0000 0.80380  0.82500  0.36968  Biso   1.000  O
  O111     1.0000 0.17500  0.97880  0.36968  Biso   1.000  O
  O112     1.0000 0.19620  0.02120  0.13032  Biso   1.000  O
  O113     1.0000 0.82500  0.80380  0.13032  Biso   1.000  O
  O114     1.0000 0.97880  0.17500  0.13032  Biso   1.000  O
  O115     1.0000 0.68787  0.52953  0.70301  Biso   1.000  O
  O116     1.0000 0.47047  0.15833  0.70301  Biso   1.000  O
  O117     1.0000 0.84167  0.31213  0.70301  Biso   1.000  O
  O118     1.0000 0.86287  0.35453  0.46365  Biso   1.000  O
  O119     1.0000 0.49167  0.13713  0.46365  Biso   1.000  O
  O120     1.0000 0.64547  0.50833  0.46365  Biso   1.000  O
  O121     1.0000 0.35453  0.86287  0.03635  Biso   1.000  O
  O122     1.0000 0.13713  0.49167  0.03635  Biso   1.000  O
  O123     1.0000 0.50833  0.64547  0.03635  Biso   1.000  O
  O124     1.0000 0.52953  0.68787  0.79699  Biso   1.000  O
  O125     1.0000 0.15833  0.47047  0.79699  Biso   1.000  O
  O126     1.0000 0.31213  0.84167  0.79699  Biso   1.000  O
  O127     1.0000 0.97880  0.80380  0.63032  Biso   1.000  O
  O128     1.0000 0.19620  0.17500  0.63032  Biso   1.000  O
  O129     1.0000 0.82500  0.02120  0.63032  Biso   1.000  O
  O130     1.0000 0.80380  0.97880  0.86968  Biso   1.000  O
  O131     1.0000 0.17500  0.19620  0.86968  Biso   1.000  O
  O132     1.0000 0.02120  0.82500  0.86968  Biso   1.000  O
  O133     1.0000 0.64547  0.13713  0.96365  Biso   1.000  O
  O134     1.0000 0.86287  0.50833  0.96365  Biso   1.000  O
  O135     1.0000 0.49167  0.35453  0.96365  Biso   1.000  O
  O136     1.0000 0.47047  0.31213  0.20301  Biso   1.000  O
  O137     1.0000 0.84167  0.52953  0.20301  Biso   1.000  O
  O138     1.0000 0.68787  0.15833  0.20301  Biso   1.000  O
  O139     1.0000 0.31213  0.47047  0.29699  Biso   1.000  O
  O140     1.0000 0.52953  0.84167  0.29699  Biso   1.000  O
  O141     1.0000 0.15833  0.68787  0.29699  Biso   1.000  O
  O142     1.0000 0.13713  0.64547  0.53635  Biso   1.000  O
  O143     1.0000 0.50833  0.86287  0.53635  Biso   1.000  O
  O144     1.0000 0.35453  0.49167  0.53635  Biso   1.000  O
  O145     1.0000 0.66520  0.85990  0.28863  Biso   1.000  O
  O146     1.0000 0.14010  0.80530  0.28863  Biso   1.000  O
  O147     1.0000 0.19470  0.33480  0.28863  Biso   1.000  O
  O148     1.0000 0.85990  0.66520  0.21137  Biso   1.000  O
  O149     1.0000 0.80530  0.14010  0.21137  Biso   1.000  O
  O150     1.0000 0.33480  0.19470  0.21137  Biso   1.000  O
  O151     1.0000 0.33187  0.19323  0.62196  Biso   1.000  O
  O152     1.0000 0.80677  0.13863  0.62196  Biso   1.000  O
  O153     1.0000 0.86137  0.66813  0.62196  Biso   1.000  O
  O154     1.0000 0.52657  0.99853  0.54470  Biso   1.000  O
  O155     1.0000 0.47197  0.47343  0.54470  Biso   1.000  O
  O156     1.0000 0.00147  0.52803  0.54470  Biso   1.000  O
  O157     1.0000 0.99853  0.52657  0.95530  Biso   1.000  O
  O158     1.0000 0.47343  0.47197  0.95530  Biso   1.000  O
  O159     1.0000 0.52803  0.00147  0.95530  Biso   1.000  O
  O160     1.0000 0.19323  0.33187  0.87804  Biso   1.000  O
  O161     1.0000 0.13863  0.80677  0.87804  Biso   1.000  O
  O162     1.0000 0.66813  0.86137  0.87804  Biso   1.000  O
  O163     1.0000 0.33480  0.14010  0.71137  Biso   1.000  O
  O164     1.0000 0.85990  0.19470  0.71137  Biso   1.000  O
  O165     1.0000 0.80530  0.66520  0.71137  Biso   1.000  O
  O166     1.0000 0.14010  0.33480  0.78863  Biso   1.000  O
  O167     1.0000 0.19470  0.85990  0.78863  Biso   1.000  O
  O168     1.0000 0.66520  0.80530  0.78863  Biso   1.000  O
  O169     1.0000 0.00147  0.47343  0.04470  Biso   1.000  O
  O170     1.0000 0.52657  0.52803  0.04470  Biso   1.000  O
  O171     1.0000 0.47197  0.99853  0.04470  Biso   1.000  O
  O172     1.0000 0.80677  0.66813  0.12196  Biso   1.000  O
  O173     1.0000 0.86137  0.19323  0.12196  Biso   1.000  O
  O174     1.0000 0.33187  0.13863  0.12196  Biso   1.000  O
  O175     1.0000 0.66813  0.80677  0.37804  Biso   1.000  O
  O176     1.0000 0.19323  0.86137  0.37804  Biso   1.000  O
  O177     1.0000 0.13863  0.33187  0.37804  Biso   1.000  O
  O178     1.0000 0.47343  0.00147  0.45530  Biso   1.000  O
  O179     1.0000 0.52803  0.52657  0.45530  Biso   1.000  O
  O180     1.0000 0.99853  0.47197  0.45530  Biso   1.000  O
  H37      1.0000 0.69000  0.85110  0.27780  Biso   1.000  H
  H38      1.0000 0.14890  0.83890  0.27780  Biso   1.000  H
  H39      1.0000 0.16110  0.31000  0.27780  Biso   1.000  H
  H40      1.0000 0.85110  0.69000  0.22220  Biso   1.000  H
  H41      1.0000 0.83890  0.14890  0.22220  Biso   1.000  H
  H42      1.0000 0.31000  0.16110  0.22220  Biso   1.000  H
  H43      1.0000 0.35667  0.18443  0.61113  Biso   1.000  H
  H44      1.0000 0.81557  0.17223  0.61113  Biso   1.000  H
  H45      1.0000 0.82777  0.64333  0.61113  Biso   1.000  H
  H46      1.0000 0.51777  0.02333  0.55553  Biso   1.000  H
  H47      1.0000 0.50557  0.48223  0.55553  Biso   1.000  H
  H48      1.0000 0.97667  0.49443  0.55553  Biso   1.000  H
  H49      1.0000 0.02333  0.51777  0.94447  Biso   1.000  H
  H50      1.0000 0.48223  0.50557  0.94447  Biso   1.000  H
  H51      1.0000 0.49443  0.97667  0.94447  Biso   1.000  H
  H52      1.0000 0.18443  0.35667  0.88887  Biso   1.000  H
  H53      1.0000 0.17223  0.81557  0.88887  Biso   1.000  H
  H54      1.0000 0.64333  0.82777  0.88887  Biso   1.000  H
  H55      1.0000 0.31000  0.14890  0.72220  Biso   1.000  H
  H56      1.0000 0.85110  0.16110  0.72220  Biso   1.000  H
  H57      1.0000 0.83890  0.69000  0.72220  Biso   1.000  H
  H58      1.0000 0.14890  0.31000  0.77780  Biso   1.000  H
  H59      1.0000 0.16110  0.85110  0.77780  Biso   1.000  H
  H60      1.0000 0.69000  0.83890  0.77780  Biso   1.000  H
  H61      1.0000 0.97667  0.48223  0.05553  Biso   1.000  H
  H62      1.0000 0.51777  0.49443  0.05553  Biso   1.000  H
  H63      1.0000 0.50557  0.02333  0.05553  Biso   1.000  H
  H64      1.0000 0.81557  0.64333  0.11113  Biso   1.000  H
  H65      1.0000 0.82777  0.18443  0.11113  Biso   1.000  H
  H66      1.0000 0.35667  0.17223  0.11113  Biso   1.000  H
  H67      1.0000 0.64333  0.81557  0.38887  Biso   1.000  H
  H68      1.0000 0.18443  0.82777  0.38887  Biso   1.000  H
  H69      1.0000 0.17223  0.35667  0.38887  Biso   1.000  H
  H70      1.0000 0.48223  0.97667  0.44447  Biso   1.000  H
  H71      1.0000 0.49443  0.51777  0.44447  Biso   1.000  H
  H72      1.0000 0.02333  0.50557  0.44447  Biso   1.000  H
  O181     1.0000 0.74440  0.80060  0.31240  Biso   1.000  O
  O182     1.0000 0.19940  0.94380  0.31240  Biso   1.000  O
  O183     1.0000 0.05620  0.25560  0.31240  Biso   1.000  O
  O184     1.0000 0.80060  0.74440  0.18760  Biso   1.000  O
  O185     1.0000 0.94380  0.19940  0.18760  Biso   1.000  O
  O186     1.0000 0.25560  0.05620  0.18760  Biso   1.000  O
  O187     1.0000 0.41107  0.13393  0.64573  Biso   1.000  O
  O188     1.0000 0.86607  0.27713  0.64573  Biso   1.000  O
  O189     1.0000 0.72287  0.58893  0.64573  Biso   1.000  O
  O190     1.0000 0.46727  0.07773  0.52093  Biso   1.000  O
  O191     1.0000 0.61047  0.53273  0.52093  Biso   1.000  O
  O192     1.0000 0.92227  0.38953  0.52093  Biso   1.000  O
  O193     1.0000 0.07773  0.46727  0.97907  Biso   1.000  O
  O194     1.0000 0.53273  0.61047  0.97907  Biso   1.000  O
  O195     1.0000 0.38953  0.92227  0.97907  Biso   1.000  O
  O196     1.0000 0.13393  0.41107  0.85427  Biso   1.000  O
  O197     1.0000 0.27713  0.86607  0.85427  Biso   1.000  O
  O198     1.0000 0.58893  0.72287  0.85427  Biso   1.000  O
  O199     1.0000 0.25560  0.19940  0.68760  Biso   1.000  O
  O200     1.0000 0.80060  0.05620  0.68760  Biso   1.000  O
  O201     1.0000 0.94380  0.74440  0.68760  Biso   1.000  O
  O202     1.0000 0.19940  0.25560  0.81240  Biso   1.000  O
  O203     1.0000 0.05620  0.80060  0.81240  Biso   1.000  O
  O204     1.0000 0.74440  0.94380  0.81240  Biso   1.000  O
  O205     1.0000 0.92227  0.53273  0.02093  Biso   1.000  O
  O206     1.0000 0.46727  0.38953  0.02093  Biso   1.000  O
  O207     1.0000 0.61047  0.07773  0.02093  Biso   1.000  O
  O208     1.0000 0.86607  0.58893  0.14573  Biso   1.000  O
  O209     1.0000 0.72287  0.13393  0.14573  Biso   1.000  O
  O210     1.0000 0.41107  0.27713  0.14573  Biso   1.000  O
  O211     1.0000 0.58893  0.86607  0.35427  Biso   1.000  O
  O212     1.0000 0.13393  0.72287  0.35427  Biso   1.000  O
  O213     1.0000 0.27713  0.41107  0.35427  Biso   1.000  O
  O214     1.0000 0.53273  0.92227  0.47907  Biso   1.000  O
  O215     1.0000 0.38953  0.46727  0.47907  Biso   1.000  O
  O216     1.0000 0.07773  0.61047  0.47907  Biso   1.000  O
  H73      1.0000 0.78050  0.82350  0.32180  Biso   1.000  H
  H74      1.0000 0.17650  0.95700  0.32180  Biso   1.000  H
  H75      1.0000 0.04300  0.21950  0.32180  Biso   1.000  H
  H76      1.0000 0.82350  0.78050  0.17820  Biso   1.000  H
  H77      1.0000 0.95700  0.17650  0.17820  Biso   1.000  H
  H78      1.0000 0.21950  0.04300  0.17820  Biso   1.000  H
  H79      1.0000 0.44717  0.15683  0.65513  Biso   1.000  H
  H80      1.0000 0.84317  0.29033  0.65513  Biso   1.000  H
  H81      1.0000 0.70967  0.55283  0.65513  Biso   1.000  H
  H82      1.0000 0.49017  0.11383  0.51153  Biso   1.000  H
  H83      1.0000 0.62367  0.50983  0.51153  Biso   1.000  H
  H84      1.0000 0.88617  0.37633  0.51153  Biso   1.000  H
  H85      1.0000 0.11383  0.49017  0.98847  Biso   1.000  H
  H86      1.0000 0.50983  0.62367  0.98847  Biso   1.000  H
  H87      1.0000 0.37633  0.88617  0.98847  Biso   1.000  H
  H88      1.0000 0.15683  0.44717  0.84487  Biso   1.000  H
  H89      1.0000 0.29033  0.84317  0.84487  Biso   1.000  H
  H90      1.0000 0.55283  0.70967  0.84487  Biso   1.000  H
  H91      1.0000 0.21950  0.17650  0.67820  Biso   1.000  H
  H92      1.0000 0.82350  0.04300  0.67820  Biso   1.000  H
  H93      1.0000 0.95700  0.78050  0.67820  Biso   1.000  H
  H94      1.0000 0.17650  0.21950  0.82180  Biso   1.000  H
  H95      1.0000 0.04300  0.82350  0.82180  Biso   1.000  H
  H96      1.0000 0.78050  0.95700  0.82180  Biso   1.000  H
  H97      1.0000 0.88617  0.50983  0.01153  Biso   1.000  H
  H98      1.0000 0.49017  0.37633  0.01153  Biso   1.000  H
  H99      1.0000 0.62367  0.11383  0.01153  Biso   1.000  H
  H100     1.0000 0.84317  0.55283  0.15513  Biso   1.000  H
  H101     1.0000 0.70967  0.15683  0.15513  Biso   1.000  H
  H102     1.0000 0.44717  0.29033  0.15513  Biso   1.000  H
  H103     1.0000 0.55283  0.84317  0.34487  Biso   1.000  H
  H104     1.0000 0.15683  0.70967  0.34487  Biso   1.000  H
  H105     1.0000 0.29033  0.44717  0.34487  Biso   1.000  H
  H106     1.0000 0.50983  0.88617  0.48847  Biso   1.000  H
  H107     1.0000 0.37633  0.49017  0.48847  Biso   1.000  H
  H108     1.0000 0.11383  0.62367  0.48847  Biso   1.000  H
  H109     1.0000 0.75000  0.80880  0.29210  Biso   1.000  H
  H110     1.0000 0.19120  0.94120  0.29210  Biso   1.000  H
  H111     1.0000 0.05880  0.25000  0.29210  Biso   1.000  H
  H112     1.0000 0.80880  0.75000  0.20790  Biso   1.000  H
  H113     1.0000 0.94120  0.19120  0.20790  Biso   1.000  H
  H114     1.0000 0.25000  0.05880  0.20790  Biso   1.000  H
  H115     1.0000 0.41667  0.14213  0.62543  Biso   1.000  H
  H116     1.0000 0.85787  0.27453  0.62543  Biso   1.000  H
  H117     1.0000 0.72547  0.58333  0.62543  Biso   1.000  H
  H118     1.0000 0.47547  0.08333  0.54123  Biso   1.000  H
  H119     1.0000 0.60787  0.52453  0.54123  Biso   1.000  H
  H120     1.0000 0.91667  0.39213  0.54123  Biso   1.000  H
  H121     1.0000 0.08333  0.47547  0.95877  Biso   1.000  H
  H122     1.0000 0.52453  0.60787  0.95877  Biso   1.000  H
  H123     1.0000 0.39213  0.91667  0.95877  Biso   1.000  H
  H124     1.0000 0.14213  0.41667  0.87457  Biso   1.000  H
  H125     1.0000 0.27453  0.85787  0.87457  Biso   1.000  H
  H126     1.0000 0.58333  0.72547  0.87457  Biso   1.000  H
  H127     1.0000 0.25000  0.19120  0.70790  Biso   1.000  H
  H128     1.0000 0.80880  0.05880  0.70790  Biso   1.000  H
  H129     1.0000 0.94120  0.75000  0.70790  Biso   1.000  H
  H130     1.0000 0.19120  0.25000  0.79210  Biso   1.000  H
  H131     1.0000 0.05880  0.80880  0.79210  Biso   1.000  H
  H132     1.0000 0.75000  0.94120  0.79210  Biso   1.000  H
  H133     1.0000 0.91667  0.52453  0.04123  Biso   1.000  H
  H134     1.0000 0.47547  0.39213  0.04123  Biso   1.000  H
  H135     1.0000 0.60787  0.08333  0.04123  Biso   1.000  H
  H136     1.0000 0.85787  0.58333  0.12543  Biso   1.000  H
  H137     1.0000 0.72547  0.14213  0.12543  Biso   1.000  H
  H138     1.0000 0.41667  0.27453  0.12543  Biso   1.000  H
  H139     1.0000 0.58333  0.85787  0.37457  Biso   1.000  H
  H140     1.0000 0.14213  0.72547  0.37457  Biso   1.000  H
  H141     1.0000 0.27453  0.41667  0.37457  Biso   1.000  H
  H142     1.0000 0.52453  0.91667  0.45877  Biso   1.000  H
  H143     1.0000 0.39213  0.47547  0.45877  Biso   1.000  H
  H144     1.0000 0.08333  0.60787  0.45877  Biso   1.000  H
  C1       1.0000 0.88300  0.03700  0.37733  Biso   1.000  C
  C2       1.0000 0.96300  0.84600  0.37733  Biso   1.000  C
  C3       1.0000 0.15400  0.11700  0.37733  Biso   1.000  C
  C4       1.0000 0.03700  0.88300  0.12267  Biso   1.000  C
  C5       1.0000 0.84600  0.96300  0.12267  Biso   1.000  C
  C6       1.0000 0.11700  0.15400  0.12267  Biso   1.000  C
  C7       1.0000 0.54967  0.37033  0.71066  Biso   1.000  C
  C8       1.0000 0.62967  0.17933  0.71066  Biso   1.000  C
  C9       1.0000 0.82067  0.45033  0.71066  Biso   1.000  C
  C10      1.0000 0.70367  0.21633  0.45600  Biso   1.000  C
  C11      1.0000 0.51267  0.29633  0.45600  Biso   1.000  C
  C12      1.0000 0.78367  0.48733  0.45600  Biso   1.000  C
  C13      1.0000 0.21633  0.70367  0.04400  Biso   1.000  C
  C14      1.0000 0.29633  0.51267  0.04400  Biso   1.000  C
  C15      1.0000 0.48733  0.78367  0.04400  Biso   1.000  C
  C16      1.0000 0.37033  0.54967  0.78934  Biso   1.000  C
  C17      1.0000 0.17933  0.62967  0.78934  Biso   1.000  C
  C18      1.0000 0.45033  0.82067  0.78934  Biso   1.000  C
  C19      1.0000 0.11700  0.96300  0.62267  Biso   1.000  C
  C20      1.0000 0.03700  0.15400  0.62267  Biso   1.000  C
  C21      1.0000 0.84600  0.88300  0.62267  Biso   1.000  C
  C22      1.0000 0.96300  0.11700  0.87733  Biso   1.000  C
  C23      1.0000 0.15400  0.03700  0.87733  Biso   1.000  C
  C24      1.0000 0.88300  0.84600  0.87733  Biso   1.000  C
  C25      1.0000 0.78367  0.29633  0.95600  Biso   1.000  C
  C26      1.0000 0.70367  0.48733  0.95600  Biso   1.000  C
  C27      1.0000 0.51267  0.21633  0.95600  Biso   1.000  C
  C28      1.0000 0.62967  0.45033  0.21066  Biso   1.000  C
  C29      1.0000 0.82067  0.37033  0.21066  Biso   1.000  C
  C30      1.0000 0.54967  0.17933  0.21066  Biso   1.000  C
  C31      1.0000 0.45033  0.62967  0.28934  Biso   1.000  C
  C32      1.0000 0.37033  0.82067  0.28934  Biso   1.000  C
  C33      1.0000 0.17933  0.54967  0.28934  Biso   1.000  C
  C34      1.0000 0.29633  0.78367  0.54400  Biso   1.000  C
  C35      1.0000 0.48733  0.70367  0.54400  Biso   1.000  C
  C36      1.0000 0.21633  0.51267  0.54400  Biso   1.000  C
  H145     1.0000 0.89550  0.02190  0.39520  Biso   1.000  H
  H146     1.0000 0.97810  0.87360  0.39520  Biso   1.000  H
  H147     1.0000 0.12640  0.10450  0.39520  Biso   1.000  H
  H148     1.0000 0.02190  0.89550  0.10480  Biso   1.000  H
  H149     1.0000 0.87360  0.97810  0.10480  Biso   1.000  H
  H150     1.0000 0.10450  0.12640  0.10480  Biso   1.000  H
  H151     1.0000 0.56217  0.35523  0.72853  Biso   1.000  H
  H152     1.0000 0.64477  0.20693  0.72853  Biso   1.000  H
  H153     1.0000 0.79307  0.43783  0.72853  Biso   1.000  H
  H154     1.0000 0.68857  0.22883  0.43813  Biso   1.000  H
  H155     1.0000 0.54027  0.31143  0.43813  Biso   1.000  H
  H156     1.0000 0.77117  0.45973  0.43813  Biso   1.000  H
  H157     1.0000 0.22883  0.68857  0.06187  Biso   1.000  H
  H158     1.0000 0.31143  0.54027  0.06187  Biso   1.000  H
  H159     1.0000 0.45973  0.77117  0.06187  Biso   1.000  H
  H160     1.0000 0.35523  0.56217  0.77147  Biso   1.000  H
  H161     1.0000 0.20693  0.64477  0.77147  Biso   1.000  H
  H162     1.0000 0.43783  0.79307  0.77147  Biso   1.000  H
  H163     1.0000 0.10450  0.97810  0.60480  Biso   1.000  H
  H164     1.0000 0.02190  0.12640  0.60480  Biso   1.000  H
  H165     1.0000 0.87360  0.89550  0.60480  Biso   1.000  H
  H166     1.0000 0.97810  0.10450  0.89520  Biso   1.000  H
  H167     1.0000 0.12640  0.02190  0.89520  Biso   1.000  H
  H168     1.0000 0.89550  0.87360  0.89520  Biso   1.000  H
  H169     1.0000 0.77117  0.31143  0.93813  Biso   1.000  H
  H170     1.0000 0.68857  0.45973  0.93813  Biso   1.000  H
  H171     1.0000 0.54027  0.22883  0.93813  Biso   1.000  H
  H172     1.0000 0.64477  0.43783  0.22853  Biso   1.000  H
  H173     1.0000 0.79307  0.35523  0.22853  Biso   1.000  H
  H174     1.0000 0.56217  0.20693  0.22853  Biso   1.000  H
  H175     1.0000 0.43783  0.64477  0.27147  Biso   1.000  H
  H176     1.0000 0.35523  0.79307  0.27147  Biso   1.000  H
  H177     1.0000 0.20693  0.56217  0.27147  Biso   1.000  H
  H178     1.0000 0.31143  0.77117  0.56187  Biso   1.000  H
  H179     1.0000 0.45973  0.68857  0.56187  Biso   1.000  H
  H180     1.0000 0.22883  0.54027  0.56187  Biso   1.000  H
  C37      1.0000 0.92070  0.09780  0.36570  Biso   1.000  C
  C38      1.0000 0.90220  0.82290  0.36570  Biso   1.000  C
  C39      1.0000 0.17710  0.07930  0.36570  Biso   1.000  C
  C40      1.0000 0.09780  0.92070  0.13430  Biso   1.000  C
  C41      1.0000 0.82290  0.90220  0.13430  Biso   1.000  C
  C42      1.0000 0.07930  0.17710  0.13430  Biso   1.000  C
  C43      1.0000 0.58737  0.43113  0.69903  Biso   1.000  C
  C44      1.0000 0.56887  0.15623  0.69903  Biso   1.000  C
  C45      1.0000 0.84377  0.41263  0.69903  Biso   1.000  C
  C46      1.0000 0.76447  0.25403  0.46763  Biso   1.000  C
  C47      1.0000 0.48957  0.23553  0.46763  Biso   1.000  C
  C48      1.0000 0.74597  0.51043  0.46763  Biso   1.000  C
  C49      1.0000 0.25403  0.76447  0.03237  Biso   1.000  C
  C50      1.0000 0.23553  0.48957  0.03237  Biso   1.000  C
  C51      1.0000 0.51043  0.74597  0.03237  Biso   1.000  C
  C52      1.0000 0.43113  0.58737  0.80097  Biso   1.000  C
  C53      1.0000 0.15623  0.56887  0.80097  Biso   1.000  C
  C54      1.0000 0.41263  0.84377  0.80097  Biso   1.000  C
  C55      1.0000 0.07930  0.90220  0.63430  Biso   1.000  C
  C56      1.0000 0.09780  0.17710  0.63430  Biso   1.000  C
  C57      1.0000 0.82290  0.92070  0.63430  Biso   1.000  C
  C58      1.0000 0.90220  0.07930  0.86570  Biso   1.000  C
  C59      1.0000 0.17710  0.09780  0.86570  Biso   1.000  C
  C60      1.0000 0.92070  0.82290  0.86570  Biso   1.000  C
  C61      1.0000 0.74597  0.23553  0.96763  Biso   1.000  C
  C62      1.0000 0.76447  0.51043  0.96763  Biso   1.000  C
  C63      1.0000 0.48957  0.25403  0.96763  Biso   1.000  C
  C64      1.0000 0.56887  0.41263  0.19903  Biso   1.000  C
  C65      1.0000 0.84377  0.43113  0.19903  Biso   1.000  C
  C66      1.0000 0.58737  0.15623  0.19903  Biso   1.000  C
  C67      1.0000 0.41263  0.56887  0.30097  Biso   1.000  C
  C68      1.0000 0.43113  0.84377  0.30097  Biso   1.000  C
  C69      1.0000 0.15623  0.58737  0.30097  Biso   1.000  C
  C70      1.0000 0.23553  0.74597  0.53237  Biso   1.000  C
  C71      1.0000 0.51043  0.76447  0.53237  Biso   1.000  C
  C72      1.0000 0.25403  0.48957  0.53237  Biso   1.000  C
  C73      1.0000 0.89930  0.12220  0.33970  Biso   1.000  C
  C74      1.0000 0.87780  0.77710  0.33970  Biso   1.000  C
  C75      1.0000 0.22290  0.10070  0.33970  Biso   1.000  C
  C76      1.0000 0.12220  0.89930  0.16030  Biso   1.000  C
  C77      1.0000 0.77710  0.87780  0.16030  Biso   1.000  C
  C78      1.0000 0.10070  0.22290  0.16030  Biso   1.000  C
  C79      1.0000 0.56597  0.45553  0.67303  Biso   1.000  C
  C80      1.0000 0.54447  0.11043  0.67303  Biso   1.000  C
  C81      1.0000 0.88957  0.43403  0.67303  Biso   1.000  C
  C82      1.0000 0.78887  0.23263  0.49363  Biso   1.000  C
  C83      1.0000 0.44377  0.21113  0.49363  Biso   1.000  C
  C84      1.0000 0.76737  0.55623  0.49363  Biso   1.000  C
  C85      1.0000 0.23263  0.78887  0.00637  Biso   1.000  C
  C86      1.0000 0.21113  0.44377  0.00637  Biso   1.000  C
  C87      1.0000 0.55623  0.76737  0.00637  Biso   1.000  C
  C88      1.0000 0.45553  0.56597  0.82697  Biso   1.000  C
  C89      1.0000 0.11043  0.54447  0.82697  Biso   1.000  C
  C90      1.0000 0.43403  0.88957  0.82697  Biso   1.000  C
  C91      1.0000 0.10070  0.87780  0.66030  Biso   1.000  C
  C92      1.0000 0.12220  0.22290  0.66030  Biso   1.000  C
  C93      1.0000 0.77710  0.89930  0.66030  Biso   1.000  C
  C94      1.0000 0.87780  0.10070  0.83970  Biso   1.000  C
  C95      1.0000 0.22290  0.12220  0.83970  Biso   1.000  C
  C96      1.0000 0.89930  0.77710  0.83970  Biso   1.000  C
  C97      1.0000 0.76737  0.21113  0.99363  Biso   1.000  C
  C98      1.0000 0.78887  0.55623  0.99363  Biso   1.000  C
  C99      1.0000 0.44377  0.23263  0.99363  Biso   1.000  C
  C100     1.0000 0.54447  0.43403  0.17303  Biso   1.000  C
  C101     1.0000 0.88957  0.45553  0.17303  Biso   1.000  C
  C102     1.0000 0.56597  0.11043  0.17303  Biso   1.000  C
  C103     1.0000 0.43403  0.54447  0.32697  Biso   1.000  C
  C104     1.0000 0.45553  0.88957  0.32697  Biso   1.000  C
  C105     1.0000 0.11043  0.56597  0.32697  Biso   1.000  C
  C106     1.0000 0.21113  0.76737  0.50637  Biso   1.000  C
  C107     1.0000 0.55623  0.78887  0.50637  Biso   1.000  C
  C108     1.0000 0.23263  0.44377  0.50637  Biso   1.000  C
  H181     1.0000 0.92510  0.16480  0.33320  Biso   1.000  H
  H182     1.0000 0.83520  0.76030  0.33320  Biso   1.000  H
  H183     1.0000 0.23970  0.07490  0.33320  Biso   1.000  H
  H184     1.0000 0.16480  0.92510  0.16680  Biso   1.000  H
  H185     1.0000 0.76030  0.83520  0.16680  Biso   1.000  H
  H186     1.0000 0.07490  0.23970  0.16680  Biso   1.000  H
  H187     1.0000 0.59177  0.49813  0.66653  Biso   1.000  H
  H188     1.0000 0.50187  0.09363  0.66653  Biso   1.000  H
  H189     1.0000 0.90637  0.40823  0.66653  Biso   1.000  H
  H190     1.0000 0.83147  0.25843  0.50013  Biso   1.000  H
  H191     1.0000 0.42697  0.16853  0.50013  Biso   1.000  H
  H192     1.0000 0.74157  0.57303  0.50013  Biso   1.000  H
  H193     1.0000 0.25843  0.83147  0.99987  Biso   1.000  H
  H194     1.0000 0.16853  0.42697  0.99987  Biso   1.000  H
  H195     1.0000 0.57303  0.74157  0.99987  Biso   1.000  H
  H196     1.0000 0.49813  0.59177  0.83347  Biso   1.000  H
  H197     1.0000 0.09363  0.50187  0.83347  Biso   1.000  H
  H198     1.0000 0.40823  0.90637  0.83347  Biso   1.000  H
  H199     1.0000 0.07490  0.83520  0.66680  Biso   1.000  H
  H200     1.0000 0.16480  0.23970  0.66680  Biso   1.000  H
  H201     1.0000 0.76030  0.92510  0.66680  Biso   1.000  H
  H202     1.0000 0.83520  0.07490  0.83320  Biso   1.000  H
  H203     1.0000 0.23970  0.16480  0.83320  Biso   1.000  H
  H204     1.0000 0.92510  0.76030  0.83320  Biso   1.000  H
  H205     1.0000 0.74157  0.16853  0.00013  Biso   1.000  H
  H206     1.0000 0.83147  0.57303  0.00013  Biso   1.000  H
  H207     1.0000 0.42697  0.25843  0.00013  Biso   1.000  H
  H208     1.0000 0.50187  0.40823  0.16653  Biso   1.000  H
  H209     1.0000 0.90637  0.49813  0.16653  Biso   1.000  H
  H210     1.0000 0.59177  0.09363  0.16653  Biso   1.000  H
  H211     1.0000 0.40823  0.50187  0.33347  Biso   1.000  H
  H212     1.0000 0.49813  0.90637  0.33347  Biso   1.000  H
  H213     1.0000 0.09363  0.59177  0.33347  Biso   1.000  H
  H214     1.0000 0.16853  0.74157  0.49987  Biso   1.000  H
  H215     1.0000 0.57303  0.83147  0.49987  Biso   1.000  H
  H216     1.0000 0.25843  0.42697  0.49987  Biso   1.000  H
  C109     1.0000 0.84180  0.08470  0.32400  Biso   1.000  C
  C110     1.0000 0.91530  0.75710  0.32400  Biso   1.000  C
  C111     1.0000 0.24290  0.15820  0.32400  Biso   1.000  C
  C112     1.0000 0.08470  0.84180  0.17600  Biso   1.000  C
  C113     1.0000 0.75710  0.91530  0.17600  Biso   1.000  C
  C114     1.0000 0.15820  0.24290  0.17600  Biso   1.000  C
  C115     1.0000 0.50847  0.41803  0.65733  Biso   1.000  C
  C116     1.0000 0.58197  0.09043  0.65733  Biso   1.000  C
  C117     1.0000 0.90957  0.49153  0.65733  Biso   1.000  C
  C118     1.0000 0.75137  0.17513  0.50933  Biso   1.000  C
  C119     1.0000 0.42377  0.24863  0.50933  Biso   1.000  C
  C120     1.0000 0.82487  0.57623  0.50933  Biso   1.000  C
  C121     1.0000 0.17513  0.75137  0.99067  Biso   1.000  C
  C122     1.0000 0.24863  0.42377  0.99067  Biso   1.000  C
  C123     1.0000 0.57623  0.82487  0.99067  Biso   1.000  C
  C124     1.0000 0.41803  0.50847  0.84267  Biso   1.000  C
  C125     1.0000 0.09043  0.58197  0.84267  Biso   1.000  C
  C126     1.0000 0.49153  0.90957  0.84267  Biso   1.000  C
  C127     1.0000 0.15820  0.91530  0.67600  Biso   1.000  C
  C128     1.0000 0.08470  0.24290  0.67600  Biso   1.000  C
  C129     1.0000 0.75710  0.84180  0.67600  Biso   1.000  C
  C130     1.0000 0.91530  0.15820  0.82400  Biso   1.000  C
  C131     1.0000 0.24290  0.08470  0.82400  Biso   1.000  C
  C132     1.0000 0.84180  0.75710  0.82400  Biso   1.000  C
  C133     1.0000 0.82487  0.24863  0.00933  Biso   1.000  C
  C134     1.0000 0.75137  0.57623  0.00933  Biso   1.000  C
  C135     1.0000 0.42377  0.17513  0.00933  Biso   1.000  C
  C136     1.0000 0.58197  0.49153  0.15733  Biso   1.000  C
  C137     1.0000 0.90957  0.41803  0.15733  Biso   1.000  C
  C138     1.0000 0.50847  0.09043  0.15733  Biso   1.000  C
  C139     1.0000 0.49153  0.58197  0.34267  Biso   1.000  C
  C140     1.0000 0.41803  0.90957  0.34267  Biso   1.000  C
  C141     1.0000 0.09043  0.50847  0.34267  Biso   1.000  C
  C142     1.0000 0.24863  0.82487  0.49067  Biso   1.000  C
  C143     1.0000 0.57623  0.75137  0.49067  Biso   1.000  C
  C144     1.0000 0.17513  0.42377  0.49067  Biso   1.000  C
  H217     1.0000 0.82840  0.10080  0.30690  Biso   1.000  H
  H218     1.0000 0.89920  0.72760  0.30690  Biso   1.000  H
  H219     1.0000 0.27240  0.17160  0.30690  Biso   1.000  H
  H220     1.0000 0.10080  0.82840  0.19310  Biso   1.000  H
  H221     1.0000 0.72760  0.89920  0.19310  Biso   1.000  H
  H222     1.0000 0.17160  0.27240  0.19310  Biso   1.000  H
  H223     1.0000 0.49507  0.43413  0.64023  Biso   1.000  H
  H224     1.0000 0.56587  0.06093  0.64023  Biso   1.000  H
  H225     1.0000 0.93907  0.50493  0.64023  Biso   1.000  H
  H226     1.0000 0.76747  0.16173  0.52643  Biso   1.000  H
  H227     1.0000 0.39427  0.23253  0.52643  Biso   1.000  H
  H228     1.0000 0.83827  0.60573  0.52643  Biso   1.000  H
  H229     1.0000 0.16173  0.76747  0.97357  Biso   1.000  H
  H230     1.0000 0.23253  0.39427  0.97357  Biso   1.000  H
  H231     1.0000 0.60573  0.83827  0.97357  Biso   1.000  H
  H232     1.0000 0.43413  0.49507  0.85977  Biso   1.000  H
  H233     1.0000 0.06093  0.56587  0.85977  Biso   1.000  H
  H234     1.0000 0.50493  0.93907  0.85977  Biso   1.000  H
  H235     1.0000 0.17160  0.89920  0.69310  Biso   1.000  H
  H236     1.0000 0.10080  0.27240  0.69310  Biso   1.000  H
  H237     1.0000 0.72760  0.82840  0.69310  Biso   1.000  H
  H238     1.0000 0.89920  0.17160  0.80690  Biso   1.000  H
  H239     1.0000 0.27240  0.10080  0.80690  Biso   1.000  H
  H240     1.0000 0.82840  0.72760  0.80690  Biso   1.000  H
  H241     1.0000 0.83827  0.23253  0.02643  Biso   1.000  H
  H242     1.0000 0.76747  0.60573  0.02643  Biso   1.000  H
  H243     1.0000 0.39427  0.16173  0.02643  Biso   1.000  H
  H244     1.0000 0.56587  0.50493  0.14023  Biso   1.000  H
  H245     1.0000 0.93907  0.43413  0.14023  Biso   1.000  H
  H246     1.0000 0.49507  0.06093  0.14023  Biso   1.000  H
  H247     1.0000 0.50493  0.56587  0.35977  Biso   1.000  H
  H248     1.0000 0.43413  0.93907  0.35977  Biso   1.000  H
  H249     1.0000 0.06093  0.49507  0.35977  Biso   1.000  H
  H250     1.0000 0.23253  0.83827  0.47357  Biso   1.000  H
  H251     1.0000 0.60573  0.76747  0.47357  Biso   1.000  H
  H252     1.0000 0.16173  0.39427  0.47357  Biso   1.000  H
  C145     1.0000 0.80460  0.02120  0.33485  Biso   1.000  C
  C146     1.0000 0.97880  0.78340  0.33485  Biso   1.000  C
  C147     1.0000 0.21660  0.19540  0.33485  Biso   1.000  C
  C148     1.0000 0.02120  0.80460  0.16515  Biso   1.000  C
  C149     1.0000 0.78340  0.97880  0.16515  Biso   1.000  C
  C150     1.0000 0.19540  0.21660  0.16515  Biso   1.000  C
  C151     1.0000 0.47127  0.35453  0.66818  Biso   1.000  C
  C152     1.0000 0.64547  0.11673  0.66818  Biso   1.000  C
  C153     1.0000 0.88327  0.52873  0.66818  Biso   1.000  C
  C154     1.0000 0.68787  0.13793  0.49848  Biso   1.000  C
  C155     1.0000 0.45007  0.31213  0.49848  Biso   1.000  C
  C156     1.0000 0.86207  0.54993  0.49848  Biso   1.000  C
  C157     1.0000 0.13793  0.68787  0.00152  Biso   1.000  C
  C158     1.0000 0.31213  0.45007  0.00152  Biso   1.000  C
  C159     1.0000 0.54993  0.86207  0.00152  Biso   1.000  C
  C160     1.0000 0.35453  0.47127  0.83182  Biso   1.000  C
  C161     1.0000 0.11673  0.64547  0.83182  Biso   1.000  C
  C162     1.0000 0.52873  0.88327  0.83182  Biso   1.000  C
  C163     1.0000 0.19540  0.97880  0.66515  Biso   1.000  C
  C164     1.0000 0.02120  0.21660  0.66515  Biso   1.000  C
  C165     1.0000 0.78340  0.80460  0.66515  Biso   1.000  C
  C166     1.0000 0.97880  0.19540  0.83485  Biso   1.000  C
  C167     1.0000 0.21660  0.02120  0.83485  Biso   1.000  C
  C168     1.0000 0.80460  0.78340  0.83485  Biso   1.000  C
  C169     1.0000 0.86207  0.31213  0.99848  Biso   1.000  C
  C170     1.0000 0.68787  0.54993  0.99848  Biso   1.000  C
  C171     1.0000 0.45007  0.13793  0.99848  Biso   1.000  C
  C172     1.0000 0.64547  0.52873  0.16818  Biso   1.000  C
  C173     1.0000 0.88327  0.35453  0.16818  Biso   1.000  C
  C174     1.0000 0.47127  0.11673  0.16818  Biso   1.000  C
  C175     1.0000 0.52873  0.64547  0.33182  Biso   1.000  C
  C176     1.0000 0.35453  0.88327  0.33182  Biso   1.000  C
  C177     1.0000 0.11673  0.47127  0.33182  Biso   1.000  C
  C178     1.0000 0.31213  0.86207  0.50152  Biso   1.000  C
  C179     1.0000 0.54993  0.68787  0.50152  Biso   1.000  C
  C180     1.0000 0.13793  0.45007  0.50152  Biso   1.000  C
  C181     1.0000 0.82450  0.99810  0.36129  Biso   1.000  C
  C182     1.0000 0.00190  0.82640  0.36129  Biso   1.000  C
  C183     1.0000 0.17360  0.17550  0.36129  Biso   1.000  C
  C184     1.0000 0.99810  0.82450  0.13871  Biso   1.000  C
  C185     1.0000 0.82640  0.00190  0.13871  Biso   1.000  C
  C186     1.0000 0.17550  0.17360  0.13871  Biso   1.000  C
  C187     1.0000 0.49117  0.33143  0.69462  Biso   1.000  C
  C188     1.0000 0.66857  0.15973  0.69462  Biso   1.000  C
  C189     1.0000 0.84027  0.50883  0.69462  Biso   1.000  C
  C190     1.0000 0.66477  0.15783  0.47204  Biso   1.000  C
  C191     1.0000 0.49307  0.33523  0.47204  Biso   1.000  C
  C192     1.0000 0.84217  0.50693  0.47204  Biso   1.000  C
  C193     1.0000 0.15783  0.66477  0.02796  Biso   1.000  C
  C194     1.0000 0.33523  0.49307  0.02796  Biso   1.000  C
  C195     1.0000 0.50693  0.84217  0.02796  Biso   1.000  C
  C196     1.0000 0.33143  0.49117  0.80538  Biso   1.000  C
  C197     1.0000 0.15973  0.66857  0.80538  Biso   1.000  C
  C198     1.0000 0.50883  0.84027  0.80538  Biso   1.000  C
  C199     1.0000 0.17550  0.00190  0.63871  Biso   1.000  C
  C200     1.0000 0.99810  0.17360  0.63871  Biso   1.000  C
  C201     1.0000 0.82640  0.82450  0.63871  Biso   1.000  C
  C202     1.0000 0.00190  0.17550  0.86129  Biso   1.000  C
  C203     1.0000 0.17360  0.99810  0.86129  Biso   1.000  C
  C204     1.0000 0.82450  0.82640  0.86129  Biso   1.000  C
  C205     1.0000 0.84217  0.33523  0.97204  Biso   1.000  C
  C206     1.0000 0.66477  0.50693  0.97204  Biso   1.000  C
  C207     1.0000 0.49307  0.15783  0.97204  Biso   1.000  C
  C208     1.0000 0.66857  0.50883  0.19462  Biso   1.000  C
  C209     1.0000 0.84027  0.33143  0.19462  Biso   1.000  C
  C210     1.0000 0.49117  0.15973  0.19462  Biso   1.000  C
  C211     1.0000 0.50883  0.66857  0.30538  Biso   1.000  C
  C212     1.0000 0.33143  0.84027  0.30538  Biso   1.000  C
  C213     1.0000 0.15973  0.49117  0.30538  Biso   1.000  C
  C214     1.0000 0.33523  0.84217  0.52796  Biso   1.000  C
  C215     1.0000 0.50693  0.66477  0.52796  Biso   1.000  C
  C216     1.0000 0.15783  0.49307  0.52796  Biso   1.000  C
  C217     1.0000 0.98660  0.13900  0.38050  Biso   1.000  C
  C218     1.0000 0.86100  0.84760  0.38050  Biso   1.000  C
  C219     1.0000 0.15240  0.01340  0.38050  Biso   1.000  C
  C220     1.0000 0.13900  0.98660  0.11950  Biso   1.000  C
  C221     1.0000 0.84760  0.86100  0.11950  Biso   1.000  C
  C222     1.0000 0.01340  0.15240  0.11950  Biso   1.000  C
  C223     1.0000 0.65327  0.47233  0.71383  Biso   1.000  C
  C224     1.0000 0.52767  0.18093  0.71383  Biso   1.000  C
  C225     1.0000 0.81907  0.34673  0.71383  Biso   1.000  C
  C226     1.0000 0.80567  0.31993  0.45283  Biso   1.000  C
  C227     1.0000 0.51427  0.19433  0.45283  Biso   1.000  C
  C228     1.0000 0.68007  0.48573  0.45283  Biso   1.000  C
  C229     1.0000 0.31993  0.80567  0.04717  Biso   1.000  C
  C230     1.0000 0.19433  0.51427  0.04717  Biso   1.000  C
  C231     1.0000 0.48573  0.68007  0.04717  Biso   1.000  C
  C232     1.0000 0.47233  0.65327  0.78617  Biso   1.000  C
  C233     1.0000 0.18093  0.52767  0.78617  Biso   1.000  C
  C234     1.0000 0.34673  0.81907  0.78617  Biso   1.000  C
  C235     1.0000 0.01340  0.86100  0.61950  Biso   1.000  C
  C236     1.0000 0.13900  0.15240  0.61950  Biso   1.000  C
  C237     1.0000 0.84760  0.98660  0.61950  Biso   1.000  C
  C238     1.0000 0.86100  0.01340  0.88050  Biso   1.000  C
  C239     1.0000 0.15240  0.13900  0.88050  Biso   1.000  C
  C240     1.0000 0.98660  0.84760  0.88050  Biso   1.000  C
  C241     1.0000 0.68007  0.19433  0.95283  Biso   1.000  C
  C242     1.0000 0.80567  0.48573  0.95283  Biso   1.000  C
  C243     1.0000 0.51427  0.31993  0.95283  Biso   1.000  C
  C244     1.0000 0.52767  0.34673  0.21383  Biso   1.000  C
  C245     1.0000 0.81907  0.47233  0.21383  Biso   1.000  C
  C246     1.0000 0.65327  0.18093  0.21383  Biso   1.000  C
  C247     1.0000 0.34673  0.52767  0.28617  Biso   1.000  C
  C248     1.0000 0.47233  0.81907  0.28617  Biso   1.000  C
  C249     1.0000 0.18093  0.65327  0.28617  Biso   1.000  C
  C250     1.0000 0.19433  0.68007  0.54717  Biso   1.000  C
  C251     1.0000 0.48573  0.80567  0.54717  Biso   1.000  C
  C252     1.0000 0.31993  0.51427  0.54717  Biso   1.000  C
  C253     1.0000 0.64220  0.04330  0.33617  Biso   1.000  C
  C254     1.0000 0.95670  0.59890  0.33617  Biso   1.000  C
  C255     1.0000 0.40110  0.35780  0.33617  Biso   1.000  C
  C256     1.0000 0.04330  0.64220  0.16383  Biso   1.000  C
  C257     1.0000 0.59890  0.95670  0.16383  Biso   1.000  C
  C258     1.0000 0.35780  0.40110  0.16383  Biso   1.000  C
  C259     1.0000 0.30887  0.37663  0.66950  Biso   1.000  C
  C260     1.0000 0.62337  0.93223  0.66950  Biso   1.000  C
  C261     1.0000 0.06777  0.69113  0.66950  Biso   1.000  C
  C262     1.0000 0.70997  0.97553  0.49716  Biso   1.000  C
  C263     1.0000 0.26557  0.29003  0.49716  Biso   1.000  C
  C264     1.0000 0.02447  0.73443  0.49716  Biso   1.000  C
  C265     1.0000 0.97553  0.70997  0.00284  Biso   1.000  C
  C266     1.0000 0.29003  0.26557  0.00284  Biso   1.000  C
  C267     1.0000 0.73443  0.02447  0.00284  Biso   1.000  C
  C268     1.0000 0.37663  0.30887  0.83050  Biso   1.000  C
  C269     1.0000 0.93223  0.62337  0.83050  Biso   1.000  C
  C270     1.0000 0.69113  0.06777  0.83050  Biso   1.000  C
  C271     1.0000 0.35780  0.95670  0.66383  Biso   1.000  C
  C272     1.0000 0.04330  0.40110  0.66383  Biso   1.000  C
  C273     1.0000 0.59890  0.64220  0.66383  Biso   1.000  C
  C274     1.0000 0.95670  0.35780  0.83617  Biso   1.000  C
  C275     1.0000 0.40110  0.04330  0.83617  Biso   1.000  C
  C276     1.0000 0.64220  0.59890  0.83617  Biso   1.000  C
  C277     1.0000 0.02447  0.29003  0.99716  Biso   1.000  C
  C278     1.0000 0.70997  0.73443  0.99716  Biso   1.000  C
  C279     1.0000 0.26557  0.97553  0.99716  Biso   1.000  C
  C280     1.0000 0.62337  0.69113  0.16950  Biso   1.000  C
  C281     1.0000 0.06777  0.37663  0.16950  Biso   1.000  C
  C282     1.0000 0.30887  0.93223  0.16950  Biso   1.000  C
  C283     1.0000 0.69113  0.62337  0.33050  Biso   1.000  C
  C284     1.0000 0.37663  0.06777  0.33050  Biso   1.000  C
  C285     1.0000 0.93223  0.30887  0.33050  Biso   1.000  C
  C286     1.0000 0.29003  0.02447  0.50284  Biso   1.000  C
  C287     1.0000 0.73443  0.70997  0.50284  Biso   1.000  C
  C288     1.0000 0.97553  0.26557  0.50284  Biso   1.000  C
  H253     1.0000 0.62840  0.00230  0.34450  Biso   1.000  H
  H254     1.0000 0.99770  0.62610  0.34450  Biso   1.000  H
  H255     1.0000 0.37390  0.37160  0.34450  Biso   1.000  H
  H256     1.0000 0.00230  0.62840  0.15550  Biso   1.000  H
  H257     1.0000 0.62610  0.99770  0.15550  Biso   1.000  H
  H258     1.0000 0.37160  0.37390  0.15550  Biso   1.000  H
  H259     1.0000 0.29507  0.33563  0.67783  Biso   1.000  H
  H260     1.0000 0.66437  0.95943  0.67783  Biso   1.000  H
  H261     1.0000 0.04057  0.70493  0.67783  Biso   1.000  H
  H262     1.0000 0.66897  0.96173  0.48883  Biso   1.000  H
  H263     1.0000 0.29277  0.33103  0.48883  Biso   1.000  H
  H264     1.0000 0.03827  0.70723  0.48883  Biso   1.000  H
  H265     1.0000 0.96173  0.66897  0.01117  Biso   1.000  H
  H266     1.0000 0.33103  0.29277  0.01117  Biso   1.000  H
  H267     1.0000 0.70723  0.03827  0.01117  Biso   1.000  H
  H268     1.0000 0.33563  0.29507  0.82217  Biso   1.000  H
  H269     1.0000 0.95943  0.66437  0.82217  Biso   1.000  H
  H270     1.0000 0.70493  0.04057  0.82217  Biso   1.000  H
  H271     1.0000 0.37160  0.99770  0.65550  Biso   1.000  H
  H272     1.0000 0.00230  0.37390  0.65550  Biso   1.000  H
  H273     1.0000 0.62610  0.62840  0.65550  Biso   1.000  H
  H274     1.0000 0.99770  0.37160  0.84450  Biso   1.000  H
  H275     1.0000 0.37390  0.00230  0.84450  Biso   1.000  H
  H276     1.0000 0.62840  0.62610  0.84450  Biso   1.000  H
  H277     1.0000 0.03827  0.33103  0.98883  Biso   1.000  H
  H278     1.0000 0.66897  0.70723  0.98883  Biso   1.000  H
  H279     1.0000 0.29277  0.96173  0.98883  Biso   1.000  H
  H280     1.0000 0.66437  0.70493  0.17783  Biso   1.000  H
  H281     1.0000 0.04057  0.33563  0.17783  Biso   1.000  H
  H282     1.0000 0.29507  0.95943  0.17783  Biso   1.000  H
  H283     1.0000 0.70493  0.66437  0.32217  Biso   1.000  H
  H284     1.0000 0.33563  0.04057  0.32217  Biso   1.000  H
  H285     1.0000 0.95943  0.29507  0.32217  Biso   1.000  H
  H286     1.0000 0.33103  0.03827  0.51117  Biso   1.000  H
  H287     1.0000 0.70723  0.66897  0.51117  Biso   1.000  H
  H288     1.0000 0.96173  0.29277  0.51117  Biso   1.000  H
  C289     1.0000 0.63040  0.08660  0.35228  Biso   1.000  C
  C290     1.0000 0.91340  0.54380  0.35228  Biso   1.000  C
  C291     1.0000 0.45620  0.36960  0.35228  Biso   1.000  C
  C292     1.0000 0.08660  0.63040  0.14772  Biso   1.000  C
  C293     1.0000 0.54380  0.91340  0.14772  Biso   1.000  C
  C294     1.0000 0.36960  0.45620  0.14772  Biso   1.000  C
  C295     1.0000 0.29707  0.41993  0.68561  Biso   1.000  C
  C296     1.0000 0.58007  0.87713  0.68561  Biso   1.000  C
  C297     1.0000 0.12287  0.70293  0.68561  Biso   1.000  C
  C298     1.0000 0.75327  0.96373  0.48105  Biso   1.000  C
  C299     1.0000 0.21047  0.24673  0.48105  Biso   1.000  C
  C300     1.0000 0.03627  0.78953  0.48105  Biso   1.000  C
  C301     1.0000 0.96373  0.75327  0.01895  Biso   1.000  C
  C302     1.0000 0.24673  0.21047  0.01895  Biso   1.000  C
  C303     1.0000 0.78953  0.03627  0.01895  Biso   1.000  C
  C304     1.0000 0.41993  0.29707  0.81439  Biso   1.000  C
  C305     1.0000 0.87713  0.58007  0.81439  Biso   1.000  C
  C306     1.0000 0.70293  0.12287  0.81439  Biso   1.000  C
  C307     1.0000 0.36960  0.91340  0.64772  Biso   1.000  C
  C308     1.0000 0.08660  0.45620  0.64772  Biso   1.000  C
  C309     1.0000 0.54380  0.63040  0.64772  Biso   1.000  C
  C310     1.0000 0.91340  0.36960  0.85228  Biso   1.000  C
  C311     1.0000 0.45620  0.08660  0.85228  Biso   1.000  C
  C312     1.0000 0.63040  0.54380  0.85228  Biso   1.000  C
  C313     1.0000 0.03627  0.24673  0.98105  Biso   1.000  C
  C314     1.0000 0.75327  0.78953  0.98105  Biso   1.000  C
  C315     1.0000 0.21047  0.96373  0.98105  Biso   1.000  C
  C316     1.0000 0.58007  0.70293  0.18561  Biso   1.000  C
  C317     1.0000 0.12287  0.41993  0.18561  Biso   1.000  C
  C318     1.0000 0.29707  0.87713  0.18561  Biso   1.000  C
  C319     1.0000 0.70293  0.58007  0.31439  Biso   1.000  C
  C320     1.0000 0.41993  0.12287  0.31439  Biso   1.000  C
  C321     1.0000 0.87713  0.29707  0.31439  Biso   1.000  C
  C322     1.0000 0.24673  0.03627  0.51895  Biso   1.000  C
  C323     1.0000 0.78953  0.75327  0.51895  Biso   1.000  C
  C324     1.0000 0.96373  0.21047  0.51895  Biso   1.000  C
  C325     1.0000 0.65090  0.14870  0.33950  Biso   1.000  C
  C326     1.0000 0.85130  0.50220  0.33950  Biso   1.000  C
  C327     1.0000 0.49780  0.34910  0.33950  Biso   1.000  C
  C328     1.0000 0.14870  0.65090  0.16050  Biso   1.000  C
  C329     1.0000 0.50220  0.85130  0.16050  Biso   1.000  C
  C330     1.0000 0.34910  0.49780  0.16050  Biso   1.000  C
  C331     1.0000 0.31757  0.48203  0.67283  Biso   1.000  C
  C332     1.0000 0.51797  0.83553  0.67283  Biso   1.000  C
  C333     1.0000 0.16447  0.68243  0.67283  Biso   1.000  C
  C334     1.0000 0.81537  0.98423  0.49383  Biso   1.000  C
  C335     1.0000 0.16887  0.18463  0.49383  Biso   1.000  C
  C336     1.0000 0.01577  0.83113  0.49383  Biso   1.000  C
  C337     1.0000 0.98423  0.81537  0.00617  Biso   1.000  C
  C338     1.0000 0.18463  0.16887  0.00617  Biso   1.000  C
  C339     1.0000 0.83113  0.01577  0.00617  Biso   1.000  C
  C340     1.0000 0.48203  0.31757  0.82717  Biso   1.000  C
  C341     1.0000 0.83553  0.51797  0.82717  Biso   1.000  C
  C342     1.0000 0.68243  0.16447  0.82717  Biso   1.000  C
  C343     1.0000 0.34910  0.85130  0.66050  Biso   1.000  C
  C344     1.0000 0.14870  0.49780  0.66050  Biso   1.000  C
  C345     1.0000 0.50220  0.65090  0.66050  Biso   1.000  C
  C346     1.0000 0.85130  0.34910  0.83950  Biso   1.000  C
  C347     1.0000 0.49780  0.14870  0.83950  Biso   1.000  C
  C348     1.0000 0.65090  0.50220  0.83950  Biso   1.000  C
  C349     1.0000 0.01577  0.18463  0.99383  Biso   1.000  C
  C350     1.0000 0.81537  0.83113  0.99383  Biso   1.000  C
  C351     1.0000 0.16887  0.98423  0.99383  Biso   1.000  C
  C352     1.0000 0.51797  0.68243  0.17283  Biso   1.000  C
  C353     1.0000 0.16447  0.48203  0.17283  Biso   1.000  C
  C354     1.0000 0.31757  0.83553  0.17283  Biso   1.000  C
  C355     1.0000 0.68243  0.51797  0.32717  Biso   1.000  C
  C356     1.0000 0.48203  0.16447  0.32717  Biso   1.000  C
  C357     1.0000 0.83553  0.31757  0.32717  Biso   1.000  C
  C358     1.0000 0.18463  0.01577  0.50617  Biso   1.000  C
  C359     1.0000 0.83113  0.81537  0.50617  Biso   1.000  C
  C360     1.0000 0.98423  0.16887  0.50617  Biso   1.000  C
  H289     1.0000 0.64260  0.17680  0.35140  Biso   1.000  H
  H290     1.0000 0.82320  0.46580  0.35140  Biso   1.000  H
  H291     1.0000 0.53420  0.35740  0.35140  Biso   1.000  H
  H292     1.0000 0.17680  0.64260  0.14860  Biso   1.000  H
  H293     1.0000 0.46580  0.82320  0.14860  Biso   1.000  H
  H294     1.0000 0.35740  0.53420  0.14860  Biso   1.000  H
  H295     1.0000 0.30927  0.51013  0.68473  Biso   1.000  H
  H296     1.0000 0.48987  0.79913  0.68473  Biso   1.000  H
  H297     1.0000 0.20087  0.69073  0.68473  Biso   1.000  H
  H298     1.0000 0.84347  0.97593  0.48193  Biso   1.000  H
  H299     1.0000 0.13247  0.15653  0.48193  Biso   1.000  H
  H300     1.0000 0.02407  0.86753  0.48193  Biso   1.000  H
  H301     1.0000 0.97593  0.84347  0.01807  Biso   1.000  H
  H302     1.0000 0.15653  0.13247  0.01807  Biso   1.000  H
  H303     1.0000 0.86753  0.02407  0.01807  Biso   1.000  H
  H304     1.0000 0.51013  0.30927  0.81527  Biso   1.000  H
  H305     1.0000 0.79913  0.48987  0.81527  Biso   1.000  H
  H306     1.0000 0.69073  0.20087  0.81527  Biso   1.000  H
  H307     1.0000 0.35740  0.82320  0.64860  Biso   1.000  H
  H308     1.0000 0.17680  0.53420  0.64860  Biso   1.000  H
  H309     1.0000 0.46580  0.64260  0.64860  Biso   1.000  H
  H310     1.0000 0.82320  0.35740  0.85140  Biso   1.000  H
  H311     1.0000 0.53420  0.17680  0.85140  Biso   1.000  H
  H312     1.0000 0.64260  0.46580  0.85140  Biso   1.000  H
  H313     1.0000 0.02407  0.15653  0.98193  Biso   1.000  H
  H314     1.0000 0.84347  0.86753  0.98193  Biso   1.000  H
  H315     1.0000 0.13247  0.97593  0.98193  Biso   1.000  H
  H316     1.0000 0.48987  0.69073  0.18473  Biso   1.000  H
  H317     1.0000 0.20087  0.51013  0.18473  Biso   1.000  H
  H318     1.0000 0.30927  0.79913  0.18473  Biso   1.000  H
  H319     1.0000 0.69073  0.48987  0.31527  Biso   1.000  H
  H320     1.0000 0.51013  0.20087  0.31527  Biso   1.000  H
  H321     1.0000 0.79913  0.30927  0.31527  Biso   1.000  H
  H322     1.0000 0.15653  0.02407  0.51807  Biso   1.000  H
  H323     1.0000 0.86753  0.84347  0.51807  Biso   1.000  H
  H324     1.0000 0.97593  0.13247  0.51807  Biso   1.000  H
  C361     1.0000 0.68210  0.16890  0.31050  Biso   1.000  C
  C362     1.0000 0.83110  0.51320  0.31050  Biso   1.000  C
  C363     1.0000 0.48680  0.31790  0.31050  Biso   1.000  C
  C364     1.0000 0.16890  0.68210  0.18950  Biso   1.000  C
  C365     1.0000 0.51320  0.83110  0.18950  Biso   1.000  C
  C366     1.0000 0.31790  0.48680  0.18950  Biso   1.000  C
  C367     1.0000 0.34877  0.50223  0.64383  Biso   1.000  C
  C368     1.0000 0.49777  0.84653  0.64383  Biso   1.000  C
  C369     1.0000 0.15347  0.65123  0.64383  Biso   1.000  C
  C370     1.0000 0.83557  0.01543  0.52283  Biso   1.000  C
  C371     1.0000 0.17987  0.16443  0.52283  Biso   1.000  C
  C372     1.0000 0.98457  0.82013  0.52283  Biso   1.000  C
  C373     1.0000 0.01543  0.83557  0.97717  Biso   1.000  C
  C374     1.0000 0.16443  0.17987  0.97717  Biso   1.000  C
  C375     1.0000 0.82013  0.98457  0.97717  Biso   1.000  C
  C376     1.0000 0.50223  0.34877  0.85617  Biso   1.000  C
  C377     1.0000 0.84653  0.49777  0.85617  Biso   1.000  C
  C378     1.0000 0.65123  0.15347  0.85617  Biso   1.000  C
  C379     1.0000 0.31790  0.83110  0.68950  Biso   1.000  C
  C380     1.0000 0.16890  0.48680  0.68950  Biso   1.000  C
  C381     1.0000 0.51320  0.68210  0.68950  Biso   1.000  C
  C382     1.0000 0.83110  0.31790  0.81050  Biso   1.000  C
  C383     1.0000 0.48680  0.16890  0.81050  Biso   1.000  C
  C384     1.0000 0.68210  0.51320  0.81050  Biso   1.000  C
  C385     1.0000 0.98457  0.16443  0.02283  Biso   1.000  C
  C386     1.0000 0.83557  0.82013  0.02283  Biso   1.000  C
  C387     1.0000 0.17987  0.01543  0.02283  Biso   1.000  C
  C388     1.0000 0.49777  0.65123  0.14383  Biso   1.000  C
  C389     1.0000 0.15347  0.50223  0.14383  Biso   1.000  C
  C390     1.0000 0.34877  0.84653  0.14383  Biso   1.000  C
  C391     1.0000 0.65123  0.49777  0.35617  Biso   1.000  C
  C392     1.0000 0.50223  0.15347  0.35617  Biso   1.000  C
  C393     1.0000 0.84653  0.34877  0.35617  Biso   1.000  C
  C394     1.0000 0.16443  0.98457  0.47717  Biso   1.000  C
  C395     1.0000 0.82013  0.83557  0.47717  Biso   1.000  C
  C396     1.0000 0.01543  0.17987  0.47717  Biso   1.000  C
  H325     1.0000 0.69500  0.20980  0.30230  Biso   1.000  H
  H326     1.0000 0.79020  0.48520  0.30230  Biso   1.000  H
  H327     1.0000 0.51480  0.30500  0.30230  Biso   1.000  H
  H328     1.0000 0.20980  0.69500  0.19770  Biso   1.000  H
  H329     1.0000 0.48520  0.79020  0.19770  Biso   1.000  H
  H330     1.0000 0.30500  0.51480  0.19770  Biso   1.000  H
  H331     1.0000 0.36167  0.54313  0.63563  Biso   1.000  H
  H332     1.0000 0.45687  0.81853  0.63563  Biso   1.000  H
  H333     1.0000 0.18147  0.63833  0.63563  Biso   1.000  H
  H334     1.0000 0.87647  0.02833  0.53103  Biso   1.000  H
  H335     1.0000 0.15187  0.12353  0.53103  Biso   1.000  H
  H336     1.0000 0.97167  0.84813  0.53103  Biso   1.000  H
  H337     1.0000 0.02833  0.87647  0.96897  Biso   1.000  H
  H338     1.0000 0.12353  0.15187  0.96897  Biso   1.000  H
  H339     1.0000 0.84813  0.97167  0.96897  Biso   1.000  H
  H340     1.0000 0.54313  0.36167  0.86437  Biso   1.000  H
  H341     1.0000 0.81853  0.45687  0.86437  Biso   1.000  H
  H342     1.0000 0.63833  0.18147  0.86437  Biso   1.000  H
  H343     1.0000 0.30500  0.79020  0.69770  Biso   1.000  H
  H344     1.0000 0.20980  0.51480  0.69770  Biso   1.000  H
  H345     1.0000 0.48520  0.69500  0.69770  Biso   1.000  H
  H346     1.0000 0.79020  0.30500  0.80230  Biso   1.000  H
  H347     1.0000 0.51480  0.20980  0.80230  Biso   1.000  H
  H348     1.0000 0.69500  0.48520  0.80230  Biso   1.000  H
  H349     1.0000 0.97167  0.12353  0.03103  Biso   1.000  H
  H350     1.0000 0.87647  0.84813  0.03103  Biso   1.000  H
  H351     1.0000 0.15187  0.02833  0.03103  Biso   1.000  H
  H352     1.0000 0.45687  0.63833  0.13563  Biso   1.000  H
  H353     1.0000 0.18147  0.54313  0.13563  Biso   1.000  H
  H354     1.0000 0.36167  0.81853  0.13563  Biso   1.000  H
  H355     1.0000 0.63833  0.45687  0.36437  Biso   1.000  H
  H356     1.0000 0.54313  0.18147  0.36437  Biso   1.000  H
  H357     1.0000 0.81853  0.36167  0.36437  Biso   1.000  H
  H358     1.0000 0.12353  0.97167  0.46897  Biso   1.000  H
  H359     1.0000 0.84813  0.87647  0.46897  Biso   1.000  H
  H360     1.0000 0.02833  0.15187  0.46897  Biso   1.000  H
  C397     1.0000 0.69400  0.12460  0.29348  Biso   1.000  C
  C398     1.0000 0.87540  0.56940  0.29348  Biso   1.000  C
  C399     1.0000 0.43060  0.30600  0.29348  Biso   1.000  C
  C400     1.0000 0.12460  0.69400  0.20652  Biso   1.000  C
  C401     1.0000 0.56940  0.87540  0.20652  Biso   1.000  C
  C402     1.0000 0.30600  0.43060  0.20652  Biso   1.000  C
  C403     1.0000 0.36067  0.45793  0.62681  Biso   1.000  C
  C404     1.0000 0.54207  0.90273  0.62681  Biso   1.000  C
  C405     1.0000 0.09727  0.63933  0.62681  Biso   1.000  C
  C406     1.0000 0.79127  0.02733  0.53985  Biso   1.000  C
  C407     1.0000 0.23607  0.20873  0.53985  Biso   1.000  C
  C408     1.0000 0.97267  0.76393  0.53985  Biso   1.000  C
  C409     1.0000 0.02733  0.79127  0.96015  Biso   1.000  C
  C410     1.0000 0.20873  0.23607  0.96015  Biso   1.000  C
  C411     1.0000 0.76393  0.97267  0.96015  Biso   1.000  C
  C412     1.0000 0.45793  0.36067  0.87319  Biso   1.000  C
  C413     1.0000 0.90273  0.54207  0.87319  Biso   1.000  C
  C414     1.0000 0.63933  0.09727  0.87319  Biso   1.000  C
  C415     1.0000 0.30600  0.87540  0.70652  Biso   1.000  C
  C416     1.0000 0.12460  0.43060  0.70652  Biso   1.000  C
  C417     1.0000 0.56940  0.69400  0.70652  Biso   1.000  C
  C418     1.0000 0.87540  0.30600  0.79348  Biso   1.000  C
  C419     1.0000 0.43060  0.12460  0.79348  Biso   1.000  C
  C420     1.0000 0.69400  0.56940  0.79348  Biso   1.000  C
  C421     1.0000 0.97267  0.20873  0.03985  Biso   1.000  C
  C422     1.0000 0.79127  0.76393  0.03985  Biso   1.000  C
  C423     1.0000 0.23607  0.02733  0.03985  Biso   1.000  C
  C424     1.0000 0.54207  0.63933  0.12681  Biso   1.000  C
  C425     1.0000 0.09727  0.45793  0.12681  Biso   1.000  C
  C426     1.0000 0.36067  0.90273  0.12681  Biso   1.000  C
  C427     1.0000 0.63933  0.54207  0.37319  Biso   1.000  C
  C428     1.0000 0.45793  0.09727  0.37319  Biso   1.000  C
  C429     1.0000 0.90273  0.36067  0.37319  Biso   1.000  C
  C430     1.0000 0.20873  0.97267  0.46015  Biso   1.000  C
  C431     1.0000 0.76393  0.79127  0.46015  Biso   1.000  C
  C432     1.0000 0.02733  0.23607  0.46015  Biso   1.000  C
  C433     1.0000 0.67570  0.06360  0.30663  Biso   1.000  C
  C434     1.0000 0.93640  0.61210  0.30663  Biso   1.000  C
  C435     1.0000 0.38790  0.32430  0.30663  Biso   1.000  C
  C436     1.0000 0.06360  0.67570  0.19337  Biso   1.000  C
  C437     1.0000 0.61210  0.93640  0.19337  Biso   1.000  C
  C438     1.0000 0.32430  0.38790  0.19337  Biso   1.000  C
  C439     1.0000 0.34237  0.39693  0.63996  Biso   1.000  C
  C440     1.0000 0.60307  0.94543  0.63996  Biso   1.000  C
  C441     1.0000 0.05457  0.65763  0.63996  Biso   1.000  C
  C442     1.0000 0.73027  0.00903  0.52670  Biso   1.000  C
  C443     1.0000 0.27877  0.26973  0.52670  Biso   1.000  C
  C444     1.0000 0.99097  0.72123  0.52670  Biso   1.000  C
  C445     1.0000 0.00903  0.73027  0.97330  Biso   1.000  C
  C446     1.0000 0.26973  0.27877  0.97330  Biso   1.000  C
  C447     1.0000 0.72123  0.99097  0.97330  Biso   1.000  C
  C448     1.0000 0.39693  0.34237  0.86004  Biso   1.000  C
  C449     1.0000 0.94543  0.60307  0.86004  Biso   1.000  C
  C450     1.0000 0.65763  0.05457  0.86004  Biso   1.000  C
  C451     1.0000 0.32430  0.93640  0.69337  Biso   1.000  C
  C452     1.0000 0.06360  0.38790  0.69337  Biso   1.000  C
  C453     1.0000 0.61210  0.67570  0.69337  Biso   1.000  C
  C454     1.0000 0.93640  0.32430  0.80663  Biso   1.000  C
  C455     1.0000 0.38790  0.06360  0.80663  Biso   1.000  C
  C456     1.0000 0.67570  0.61210  0.80663  Biso   1.000  C
  C457     1.0000 0.99097  0.26973  0.02670  Biso   1.000  C
  C458     1.0000 0.73027  0.72123  0.02670  Biso   1.000  C
  C459     1.0000 0.27877  0.00903  0.02670  Biso   1.000  C
  C460     1.0000 0.60307  0.65763  0.13996  Biso   1.000  C
  C461     1.0000 0.05457  0.39693  0.13996  Biso   1.000  C
  C462     1.0000 0.34237  0.94543  0.13996  Biso   1.000  C
  C463     1.0000 0.65763  0.60307  0.36004  Biso   1.000  C
  C464     1.0000 0.39693  0.05457  0.36004  Biso   1.000  C
  C465     1.0000 0.94543  0.34237  0.36004  Biso   1.000  C
  C466     1.0000 0.26973  0.99097  0.47330  Biso   1.000  C
  C467     1.0000 0.72123  0.73027  0.47330  Biso   1.000  C
  C468     1.0000 0.00903  0.27877  0.47330  Biso   1.000  C
  C469     1.0000 0.59200  0.06820  0.38400  Biso   1.000  C
  C470     1.0000 0.93180  0.52380  0.38400  Biso   1.000  C
  C471     1.0000 0.47620  0.40800  0.38400  Biso   1.000  C
  C472     1.0000 0.06820  0.59200  0.11600  Biso   1.000  C
  C473     1.0000 0.52380  0.93180  0.11600  Biso   1.000  C
  C474     1.0000 0.40800  0.47620  0.11600  Biso   1.000  C
  C475     1.0000 0.25867  0.40153  0.71733  Biso   1.000  C
  C476     1.0000 0.59847  0.85713  0.71733  Biso   1.000  C
  C477     1.0000 0.14287  0.74133  0.71733  Biso   1.000  C
  C478     1.0000 0.73487  0.92533  0.44933  Biso   1.000  C
  C479     1.0000 0.19047  0.26513  0.44933  Biso   1.000  C
  C480     1.0000 0.07467  0.80953  0.44933  Biso   1.000  C
  C481     1.0000 0.92533  0.73487  0.05067  Biso   1.000  C
  C482     1.0000 0.26513  0.19047  0.05067  Biso   1.000  C
  C483     1.0000 0.80953  0.07467  0.05067  Biso   1.000  C
  C484     1.0000 0.40153  0.25867  0.78267  Biso   1.000  C
  C485     1.0000 0.85713  0.59847  0.78267  Biso   1.000  C
  C486     1.0000 0.74133  0.14287  0.78267  Biso   1.000  C
  C487     1.0000 0.40800  0.93180  0.61600  Biso   1.000  C
  C488     1.0000 0.06820  0.47620  0.61600  Biso   1.000  C
  C489     1.0000 0.52380  0.59200  0.61600  Biso   1.000  C
  C490     1.0000 0.93180  0.40800  0.88400  Biso   1.000  C
  C491     1.0000 0.47620  0.06820  0.88400  Biso   1.000  C
  C492     1.0000 0.59200  0.52380  0.88400  Biso   1.000  C
  C493     1.0000 0.07467  0.26513  0.94933  Biso   1.000  C
  C494     1.0000 0.73487  0.80953  0.94933  Biso   1.000  C
  C495     1.0000 0.19047  0.92533  0.94933  Biso   1.000  C
  C496     1.0000 0.59847  0.74133  0.21733  Biso   1.000  C
  C497     1.0000 0.14287  0.40153  0.21733  Biso   1.000  C
  C498     1.0000 0.25867  0.85713  0.21733  Biso   1.000  C
  C499     1.0000 0.74133  0.59847  0.28267  Biso   1.000  C
  C500     1.0000 0.40153  0.14287  0.28267  Biso   1.000  C
  C501     1.0000 0.85713  0.25867  0.28267  Biso   1.000  C
  C502     1.0000 0.26513  0.07467  0.55067  Biso   1.000  C
  C503     1.0000 0.80953  0.73487  0.55067  Biso   1.000  C
  C504     1.0000 0.92533  0.19047  0.55067  Biso   1.000  C
  O217     1.0000 0.33330  0.66670  0.16670  Biso   1.000  O
  O218     1.0000 0.66670  0.33330  0.33330  Biso   1.000  O
  O219     1.0000 0.99997  0.00003  0.50003  Biso   1.000  O
  O220     1.0000 0.33337  0.66663  0.66663  Biso   1.000  O
  O221     1.0000 0.66663  0.33337  0.83337  Biso   1.000  O
  O222     1.0000 0.00003  0.99997  0.99997  Biso   1.000  O
  O223     1.0000 0.00000  0.00000  0.42520  Biso   1.000  O
  O224     1.0000 0.00000  0.00000  0.07480  Biso   1.000  O
  O225     1.0000 0.66667  0.33333  0.75853  Biso   1.000  O
  O226     1.0000 0.66667  0.33333  0.40813  Biso   1.000  O
  O227     1.0000 0.33333  0.66667  0.09187  Biso   1.000  O
  O228     1.0000 0.33333  0.66667  0.74147  Biso   1.000  O
  O229     1.0000 0.00000  0.00000  0.57480  Biso   1.000  O
  O230     1.0000 0.00000  0.00000  0.92520  Biso   1.000  O
  O231     1.0000 0.66667  0.33333  0.90813  Biso   1.000  O
  O232     1.0000 0.66667  0.33333  0.25853  Biso   1.000  O
  O233     1.0000 0.33333  0.66667  0.24147  Biso   1.000  O
  O234     1.0000 0.33333  0.66667  0.59187  Biso   1.000  O
  O235     1.0000 0.66670  0.08210  0.08330  Biso   1.000  O
  O236     1.0000 0.91790  0.58460  0.08330  Biso   1.000  O
  O237     1.0000 0.41540  0.33330  0.08330  Biso   1.000  O
  O238     1.0000 0.08210  0.66670  0.41670  Biso   1.000  O
  O239     1.0000 0.58460  0.91790  0.41670  Biso   1.000  O
  O240     1.0000 0.33330  0.41540  0.41670  Biso   1.000  O
  O241     1.0000 0.74877  0.00003  0.75003  Biso   1.000  O
  O242     1.0000 0.25127  0.25123  0.75003  Biso   1.000  O
  O243     1.0000 0.99997  0.74873  0.75003  Biso   1.000  O
  O244     1.0000 0.33330  0.91790  0.91670  Biso   1.000  O
  O245     1.0000 0.08210  0.41540  0.91670  Biso   1.000  O
  O246     1.0000 0.58460  0.66670  0.91670  Biso   1.000  O
  O247     1.0000 0.91790  0.33330  0.58330  Biso   1.000  O
  O248     1.0000 0.41540  0.08210  0.58330  Biso   1.000  O
  O249     1.0000 0.66670  0.58460  0.58330  Biso   1.000  O
  O250     1.0000 0.99997  0.25123  0.25003  Biso   1.000  O
  O251     1.0000 0.74877  0.74873  0.25003  Biso   1.000  O
  O252     1.0000 0.25127  0.00003  0.25003  Biso   1.000  O
  H361     1.0000 0.96570  0.96760  0.41820  Biso   1.000  H
  H362     1.0000 0.03240  0.99810  0.41820  Biso   1.000  H
  H363     1.0000 0.00190  0.03430  0.41820  Biso   1.000  H
  H364     1.0000 0.96760  0.96570  0.08180  Biso   1.000  H
  H365     1.0000 0.99810  0.03240  0.08180  Biso   1.000  H
  H366     1.0000 0.03430  0.00190  0.08180  Biso   1.000  H
  H367     1.0000 0.63237  0.30093  0.75153  Biso   1.000  H
  H368     1.0000 0.69907  0.33143  0.75153  Biso   1.000  H
  H369     1.0000 0.66857  0.36763  0.75153  Biso   1.000  H
  H370     1.0000 0.63427  0.29903  0.41513  Biso   1.000  H
  H371     1.0000 0.66477  0.36573  0.41513  Biso   1.000  H
  H372     1.0000 0.70097  0.33523  0.41513  Biso   1.000  H
  H373     1.0000 0.29903  0.63427  0.08487  Biso   1.000  H
  H374     1.0000 0.36573  0.66477  0.08487  Biso   1.000  H
  H375     1.0000 0.33523  0.70097  0.08487  Biso   1.000  H
  H376     1.0000 0.30093  0.63237  0.74847  Biso   1.000  H
  H377     1.0000 0.33143  0.69907  0.74847  Biso   1.000  H
  H378     1.0000 0.36763  0.66857  0.74847  Biso   1.000  H
  H379     1.0000 0.03430  0.03240  0.58180  Biso   1.000  H
  H380     1.0000 0.96760  0.00190  0.58180  Biso   1.000  H
  H381     1.0000 0.99810  0.96570  0.58180  Biso   1.000  H
  H382     1.0000 0.03240  0.03430  0.91820  Biso   1.000  H
  H383     1.0000 0.00190  0.96760  0.91820  Biso   1.000  H
  H384     1.0000 0.96570  0.99810  0.91820  Biso   1.000  H
  H385     1.0000 0.70097  0.36573  0.91513  Biso   1.000  H
  H386     1.0000 0.63427  0.33523  0.91513  Biso   1.000  H
  H387     1.0000 0.66477  0.29903  0.91513  Biso   1.000  H
  H388     1.0000 0.69907  0.36763  0.25153  Biso   1.000  H
  H389     1.0000 0.66857  0.30093  0.25153  Biso   1.000  H
  H390     1.0000 0.63237  0.33143  0.25153  Biso   1.000  H
  H391     1.0000 0.36763  0.69907  0.24847  Biso   1.000  H
  H392     1.0000 0.30093  0.66857  0.24847  Biso   1.000  H
  H393     1.0000 0.33143  0.63237  0.24847  Biso   1.000  H
  H394     1.0000 0.36573  0.70097  0.58487  Biso   1.000  H
  H395     1.0000 0.33523  0.63427  0.58487  Biso   1.000  H
  H396     1.0000 0.29903  0.66477  0.58487  Biso   1.000  H
  H397     1.0000 0.63030  0.05350  0.09070  Biso   1.000  H
  H398     1.0000 0.94650  0.57680  0.09070  Biso   1.000  H
  H399     1.0000 0.42320  0.36970  0.09070  Biso   1.000  H
  H400     1.0000 0.05350  0.63030  0.40930  Biso   1.000  H
  H401     1.0000 0.57680  0.94650  0.40930  Biso   1.000  H
  H402     1.0000 0.36970  0.42320  0.40930  Biso   1.000  H
  H403     1.0000 0.29697  0.38683  0.42403  Biso   1.000  H
  H404     1.0000 0.61317  0.91013  0.42403  Biso   1.000  H
  H405     1.0000 0.08987  0.70303  0.42403  Biso   1.000  H
  H406     1.0000 0.72017  0.96363  0.74263  Biso   1.000  H
  H407     1.0000 0.24347  0.27983  0.74263  Biso   1.000  H
  H408     1.0000 0.03637  0.75653  0.74263  Biso   1.000  H
  H409     1.0000 0.96363  0.72017  0.75737  Biso   1.000  H
  H410     1.0000 0.27983  0.24347  0.75737  Biso   1.000  H
  H411     1.0000 0.75653  0.03637  0.75737  Biso   1.000  H
  H412     1.0000 0.38683  0.29697  0.07597  Biso   1.000  H
  H413     1.0000 0.91013  0.61317  0.07597  Biso   1.000  H
  H414     1.0000 0.70303  0.08987  0.07597  Biso   1.000  H
  H415     1.0000 0.36970  0.94650  0.90930  Biso   1.000  H
  H416     1.0000 0.05350  0.42320  0.90930  Biso   1.000  H
  H417     1.0000 0.57680  0.63030  0.90930  Biso   1.000  H
  H418     1.0000 0.94650  0.36970  0.59070  Biso   1.000  H
  H419     1.0000 0.42320  0.05350  0.59070  Biso   1.000  H
  H420     1.0000 0.63030  0.57680  0.59070  Biso   1.000  H
  H421     1.0000 0.03637  0.27983  0.24263  Biso   1.000  H
  H422     1.0000 0.72017  0.75653  0.24263  Biso   1.000  H
  H423     1.0000 0.24347  0.96363  0.24263  Biso   1.000  H
  H424     1.0000 0.61317  0.70303  0.92403  Biso   1.000  H
  H425     1.0000 0.08987  0.38683  0.92403  Biso   1.000  H
  H426     1.0000 0.29697  0.91013  0.92403  Biso   1.000  H
  H427     1.0000 0.70303  0.61317  0.57597  Biso   1.000  H
  H428     1.0000 0.38683  0.08987  0.57597  Biso   1.000  H
  H429     1.0000 0.91013  0.29697  0.57597  Biso   1.000  H
  H430     1.0000 0.27983  0.03637  0.25737  Biso   1.000  H
  H431     1.0000 0.75653  0.72017  0.25737  Biso   1.000  H
  H432     1.0000 0.96363  0.24347  0.25737  Biso   1.000  H
  H433     1.0000 0.68570  0.06430  0.07430  Biso   1.000  H
  H434     1.0000 0.93570  0.62140  0.07430  Biso   1.000  H
  H435     1.0000 0.37860  0.31430  0.07430  Biso   1.000  H
  H436     1.0000 0.06430  0.68570  0.42570  Biso   1.000  H
  H437     1.0000 0.62140  0.93570  0.42570  Biso   1.000  H
  H438     1.0000 0.31430  0.37860  0.42570  Biso   1.000  H
  H439     1.0000 0.35237  0.39763  0.40763  Biso   1.000  H
  H440     1.0000 0.60237  0.95473  0.40763  Biso   1.000  H
  H441     1.0000 0.04527  0.64763  0.40763  Biso   1.000  H
  H442     1.0000 0.73097  0.01903  0.75903  Biso   1.000  H
  H443     1.0000 0.28807  0.26903  0.75903  Biso   1.000  H
  H444     1.0000 0.98097  0.71193  0.75903  Biso   1.000  H
  H445     1.0000 0.01903  0.73097  0.74097  Biso   1.000  H
  H446     1.0000 0.26903  0.28807  0.74097  Biso   1.000  H
  H447     1.0000 0.71193  0.98097  0.74097  Biso   1.000  H
  H448     1.0000 0.39763  0.35237  0.09237  Biso   1.000  H
  H449     1.0000 0.95473  0.60237  0.09237  Biso   1.000  H
  H450     1.0000 0.64763  0.04527  0.09237  Biso   1.000  H
  H451     1.0000 0.31430  0.93570  0.92570  Biso   1.000  H
  H452     1.0000 0.06430  0.37860  0.92570  Biso   1.000  H
  H453     1.0000 0.62140  0.68570  0.92570  Biso   1.000  H
  H454     1.0000 0.93570  0.31430  0.57430  Biso   1.000  H
  H455     1.0000 0.37860  0.06430  0.57430  Biso   1.000  H
  H456     1.0000 0.68570  0.62140  0.57430  Biso   1.000  H
  H457     1.0000 0.98097  0.26903  0.25903  Biso   1.000  H
  H458     1.0000 0.73097  0.71193  0.25903  Biso   1.000  H
  H459     1.0000 0.28807  0.01903  0.25903  Biso   1.000  H
  H460     1.0000 0.60237  0.64763  0.90763  Biso   1.000  H
  H461     1.0000 0.04527  0.39763  0.90763  Biso   1.000  H
  H462     1.0000 0.35237  0.95473  0.90763  Biso   1.000  H
  H463     1.0000 0.64763  0.60237  0.59237  Biso   1.000  H
  H464     1.0000 0.39763  0.04527  0.59237  Biso   1.000  H
  H465     1.0000 0.95473  0.35237  0.59237  Biso   1.000  H
  H466     1.0000 0.26903  0.98097  0.24097  Biso   1.000  H
  H467     1.0000 0.71193  0.73097  0.24097  Biso   1.000  H
  H468     1.0000 0.01903  0.28807  0.24097  Biso   1.000  H
  H469     1.0000 0.35980  0.69180  0.17970  Biso   1.000  H
  H470     1.0000 0.30820  0.66800  0.17970  Biso   1.000  H
  H471     1.0000 0.33200  0.64020  0.17970  Biso   1.000  H
  H472     1.0000 0.69180  0.35980  0.32030  Biso   1.000  H
  H473     1.0000 0.66800  0.30820  0.32030  Biso   1.000  H
  H474     1.0000 0.64020  0.33200  0.32030  Biso   1.000  H
  H475     1.0000 0.02647  0.02513  0.51303  Biso   1.000  H
  H476     1.0000 0.97487  0.00133  0.51303  Biso   1.000  H
  H477     1.0000 0.99867  0.97353  0.51303  Biso   1.000  H
  H478     1.0000 0.35847  0.69313  0.65363  Biso   1.000  H
  H479     1.0000 0.33467  0.64153  0.65363  Biso   1.000  H
  H480     1.0000 0.30687  0.66533  0.65363  Biso   1.000  H
  H481     1.0000 0.69313  0.35847  0.84637  Biso   1.000  H
  H482     1.0000 0.64153  0.33467  0.84637  Biso   1.000  H
  H483     1.0000 0.66533  0.30687  0.84637  Biso   1.000  H
  H484     1.0000 0.02513  0.02647  0.98697  Biso   1.000  H
  H485     1.0000 0.00133  0.97487  0.98697  Biso   1.000  H
  H486     1.0000 0.97353  0.99867  0.98697  Biso   1.000  H
  H487     1.0000 0.64020  0.30820  0.82030  Biso   1.000  H
  H488     1.0000 0.69180  0.33200  0.82030  Biso   1.000  H
  H489     1.0000 0.66800  0.35980  0.82030  Biso   1.000  H
  H490     1.0000 0.30820  0.64020  0.67970  Biso   1.000  H
  H491     1.0000 0.33200  0.69180  0.67970  Biso   1.000  H
  H492     1.0000 0.35980  0.66800  0.67970  Biso   1.000  H
  H493     1.0000 0.30687  0.64153  0.15363  Biso   1.000  H
  H494     1.0000 0.35847  0.66533  0.15363  Biso   1.000  H
  H495     1.0000 0.33467  0.69313  0.15363  Biso   1.000  H
  H496     1.0000 0.97487  0.97353  0.01303  Biso   1.000  H
  H497     1.0000 0.99867  0.02513  0.01303  Biso   1.000  H
  H498     1.0000 0.02647  0.00133  0.01303  Biso   1.000  H
  H499     1.0000 0.97353  0.97487  0.48697  Biso   1.000  H
  H500     1.0000 0.02513  0.99867  0.48697  Biso   1.000  H
  H501     1.0000 0.00133  0.02647  0.48697  Biso   1.000  H
  H502     1.0000 0.64153  0.30687  0.34637  Biso   1.000  H
  H503     1.0000 0.66533  0.35847  0.34637  Biso   1.000  H
  H504     1.0000 0.69313  0.33467  0.34637  Biso   1.000  H
