data_image0
_cell_length_a       17.041
_cell_length_b       17.041
_cell_length_c       25.371
_cell_angle_alpha    90
_cell_angle_beta     90
_cell_angle_gamma    90

_symmetry_space_group_name_H-M    "P 1"
_symmetry_int_tables_number       1

loop_
  _symmetry_equiv_pos_as_xyz
  'x, y, z'

loop_
  _atom_site_label
  _atom_site_occupancy
  _atom_site_fract_x
  _atom_site_fract_y
  _atom_site_fract_z
  _atom_site_thermal_displace_type
  _atom_site_B_iso_or_equiv
  _atom_site_type_symbol
  Sm1      1.0000 0.27553  0.11819  0.80808  Biso   1.000  Sm
  Sm2      1.0000 0.72447  0.88181  0.80808  Biso   1.000  Sm
  Sm3      1.0000 0.11819  0.72447  0.19192  Biso   1.000  Sm
  Sm4      1.0000 0.88181  0.27553  0.19192  Biso   1.000  Sm
  Sm5      1.0000 0.22447  0.61819  0.69192  Biso   1.000  Sm
  Sm6      1.0000 0.77553  0.38181  0.69192  Biso   1.000  Sm
  Sm7      1.0000 0.38181  0.22447  0.30808  Biso   1.000  Sm
  Sm8      1.0000 0.61819  0.77553  0.30808  Biso   1.000  Sm
  Cu1      1.0000 0.12896  0.37850  0.16824  Biso   1.000  Cu
  Cu2      1.0000 0.87104  0.62150  0.16824  Biso   1.000  Cu
  Cu3      1.0000 0.37850  0.87104  0.83176  Biso   1.000  Cu
  Cu4      1.0000 0.62150  0.12896  0.83176  Biso   1.000  Cu
  Cu5      1.0000 0.37104  0.87850  0.33176  Biso   1.000  Cu
  Cu6      1.0000 0.62896  0.12150  0.33176  Biso   1.000  Cu
  Cu7      1.0000 0.12150  0.37104  0.66824  Biso   1.000  Cu
  Cu8      1.0000 0.87850  0.62896  0.66824  Biso   1.000  Cu
  Cu9      1.0000 0.11999  0.18517  0.00864  Biso   1.000  Cu
  Cu10     1.0000 0.88001  0.81483  0.00864  Biso   1.000  Cu
  Cu11     1.0000 0.18517  0.88001  0.99136  Biso   1.000  Cu
  Cu12     1.0000 0.81483  0.11999  0.99136  Biso   1.000  Cu
  Cu13     1.0000 0.38001  0.68517  0.49136  Biso   1.000  Cu
  Cu14     1.0000 0.61999  0.31483  0.49136  Biso   1.000  Cu
  Cu15     1.0000 0.31483  0.38001  0.50864  Biso   1.000  Cu
  Cu16     1.0000 0.68517  0.61999  0.50864  Biso   1.000  Cu
  Na1      1.0000 0.23360  0.19430  0.11389  Biso   1.000  Na
  Na2      1.0000 0.76640  0.80570  0.11389  Biso   1.000  Na
  Na3      1.0000 0.19430  0.76640  0.88611  Biso   1.000  Na
  Na4      1.0000 0.80570  0.23360  0.88611  Biso   1.000  Na
  Na5      1.0000 0.26640  0.69430  0.38611  Biso   1.000  Na
  Na6      1.0000 0.73360  0.30570  0.38611  Biso   1.000  Na
  Na7      1.0000 0.30570  0.26640  0.61389  Biso   1.000  Na
  Na8      1.0000 0.69430  0.73360  0.61389  Biso   1.000  Na
  Na9      1.0000 0.00000  0.00000  0.00000  Biso   1.000  Na
  Na10     1.0000 0.50000  0.50000  0.50000  Biso   1.000  Na
  Cl1      1.0000 0.14580  0.06846  0.19492  Biso   1.000  Cl
  Cl2      1.0000 0.85420  0.93154  0.19492  Biso   1.000  Cl
  Cl3      1.0000 0.06846  0.85420  0.80508  Biso   1.000  Cl
  Cl4      1.0000 0.93154  0.14580  0.80508  Biso   1.000  Cl
  Cl5      1.0000 0.35420  0.56846  0.30508  Biso   1.000  Cl
  Cl6      1.0000 0.64580  0.43154  0.30508  Biso   1.000  Cl
  Cl7      1.0000 0.43154  0.35420  0.69492  Biso   1.000  Cl
  Cl8      1.0000 0.56846  0.64580  0.69492  Biso   1.000  Cl
  Cl9      1.0000 0.34230  0.24390  0.99960  Biso   1.000  Cl
  Cl10     1.0000 0.65770  0.75610  0.99960  Biso   1.000  Cl
  Cl11     1.0000 0.24390  0.65770  0.00040  Biso   1.000  Cl
  Cl12     1.0000 0.75610  0.34230  0.00040  Biso   1.000  Cl
  Cl13     1.0000 0.15770  0.74390  0.50040  Biso   1.000  Cl
  Cl14     1.0000 0.84230  0.25610  0.50040  Biso   1.000  Cl
  Cl15     1.0000 0.25610  0.15770  0.49960  Biso   1.000  Cl
  Cl16     1.0000 0.74390  0.84230  0.49960  Biso   1.000  Cl
  Cl17     1.0000 0.50000  0.00000  0.10508  Biso   1.000  Cl
  Cl18     1.0000 0.00000  0.50000  0.89492  Biso   1.000  Cl
  Cl19     1.0000 0.00000  0.50000  0.39492  Biso   1.000  Cl
  Cl20     1.0000 0.50000  0.00000  0.60508  Biso   1.000  Cl
  N1       1.0000 0.38570  0.85090  0.75380  Biso   1.000  N
  N2       1.0000 0.61430  0.14910  0.75380  Biso   1.000  N
  N3       1.0000 0.85090  0.61430  0.24620  Biso   1.000  N
  N4       1.0000 0.14910  0.38570  0.24620  Biso   1.000  N
  N5       1.0000 0.11430  0.35090  0.74620  Biso   1.000  N
  N6       1.0000 0.88570  0.64910  0.74620  Biso   1.000  N
  N7       1.0000 0.64910  0.11430  0.25380  Biso   1.000  N
  N8       1.0000 0.35090  0.88570  0.25380  Biso   1.000  N
  N9       1.0000 0.07930  0.27950  0.96890  Biso   1.000  N
  N10      1.0000 0.92070  0.72050  0.96890  Biso   1.000  N
  N11      1.0000 0.27950  0.92070  0.03110  Biso   1.000  N
  N12      1.0000 0.72050  0.07930  0.03110  Biso   1.000  N
  N13      1.0000 0.42070  0.77950  0.53110  Biso   1.000  N
  N14      1.0000 0.57930  0.22050  0.53110  Biso   1.000  N
  N15      1.0000 0.22050  0.42070  0.46890  Biso   1.000  N
  N16      1.0000 0.77950  0.57930  0.46890  Biso   1.000  N
  O1       1.0000 0.32260  0.97630  0.80280  Biso   1.000  O
  O2       1.0000 0.67740  0.02370  0.80280  Biso   1.000  O
  O3       1.0000 0.97630  0.67740  0.19720  Biso   1.000  O
  O4       1.0000 0.02370  0.32260  0.19720  Biso   1.000  O
  O5       1.0000 0.17740  0.47630  0.69720  Biso   1.000  O
  O6       1.0000 0.82260  0.52370  0.69720  Biso   1.000  O
  O7       1.0000 0.52370  0.17740  0.30280  Biso   1.000  O
  O8       1.0000 0.47630  0.82260  0.30280  Biso   1.000  O
  O9       1.0000 0.27640  0.02520  0.72890  Biso   1.000  O
  O10      1.0000 0.72360  0.97480  0.72890  Biso   1.000  O
  O11      1.0000 0.02520  0.72360  0.27110  Biso   1.000  O
  O12      1.0000 0.97480  0.27640  0.27110  Biso   1.000  O
  O13      1.0000 0.22360  0.52520  0.77110  Biso   1.000  O
  O14      1.0000 0.77640  0.47480  0.77110  Biso   1.000  O
  O15      1.0000 0.47480  0.22360  0.22890  Biso   1.000  O
  O16      1.0000 0.52520  0.77640  0.22890  Biso   1.000  O
  O17      1.0000 0.29760  0.78410  0.82690  Biso   1.000  O
  O18      1.0000 0.70240  0.21590  0.82690  Biso   1.000  O
  O19      1.0000 0.78410  0.70240  0.17310  Biso   1.000  O
  O20      1.0000 0.21590  0.29760  0.17310  Biso   1.000  O
  O21      1.0000 0.20240  0.28410  0.67310  Biso   1.000  O
  O22      1.0000 0.79760  0.71590  0.67310  Biso   1.000  O
  O23      1.0000 0.71590  0.20240  0.32690  Biso   1.000  O
  O24      1.0000 0.28410  0.79760  0.32690  Biso   1.000  O
  O25      1.0000 0.26110  0.68880  0.77160  Biso   1.000  O
  O26      1.0000 0.73890  0.31120  0.77160  Biso   1.000  O
  O27      1.0000 0.68880  0.73890  0.22840  Biso   1.000  O
  O28      1.0000 0.31120  0.26110  0.22840  Biso   1.000  O
  O29      1.0000 0.23890  0.18880  0.72840  Biso   1.000  O
  O30      1.0000 0.76110  0.81120  0.72840  Biso   1.000  O
  O31      1.0000 0.81120  0.23890  0.27160  Biso   1.000  O
  O32      1.0000 0.18880  0.76110  0.27160  Biso   1.000  O
  O33      1.0000 0.59370  0.88020  0.76950  Biso   1.000  O
  O34      1.0000 0.40630  0.11980  0.76950  Biso   1.000  O
  O35      1.0000 0.88020  0.40630  0.23050  Biso   1.000  O
  O36      1.0000 0.11980  0.59370  0.23050  Biso   1.000  O
  O37      1.0000 0.90630  0.38020  0.73050  Biso   1.000  O
  O38      1.0000 0.09370  0.61980  0.73050  Biso   1.000  O
  O39      1.0000 0.61980  0.90630  0.26950  Biso   1.000  O
  O40      1.0000 0.38020  0.09370  0.26950  Biso   1.000  O
  O41      1.0000 0.49650  0.88490  0.82740  Biso   1.000  O
  O42      1.0000 0.50350  0.11510  0.82740  Biso   1.000  O
  O43      1.0000 0.88490  0.50350  0.17260  Biso   1.000  O
  O44      1.0000 0.11510  0.49650  0.17260  Biso   1.000  O
  O45      1.0000 0.00350  0.38490  0.67260  Biso   1.000  O
  O46      1.0000 0.99650  0.61510  0.67260  Biso   1.000  O
  O47      1.0000 0.61510  0.00350  0.32740  Biso   1.000  O
  O48      1.0000 0.38490  0.99650  0.32740  Biso   1.000  O
  O49      1.0000 0.10790  0.37960  0.09380  Biso   1.000  O
  O50      1.0000 0.89210  0.62040  0.09380  Biso   1.000  O
  O51      1.0000 0.37960  0.89210  0.90620  Biso   1.000  O
  O52      1.0000 0.62040  0.10790  0.90620  Biso   1.000  O
  O53      1.0000 0.39210  0.87960  0.40620  Biso   1.000  O
  O54      1.0000 0.60790  0.12040  0.40620  Biso   1.000  O
  O55      1.0000 0.12040  0.39210  0.59380  Biso   1.000  O
  O56      1.0000 0.87960  0.60790  0.59380  Biso   1.000  O
  O57      1.0000 0.11520  0.25250  0.07220  Biso   1.000  O
  O58      1.0000 0.88480  0.74750  0.07220  Biso   1.000  O
  O59      1.0000 0.25250  0.88480  0.92780  Biso   1.000  O
  O60      1.0000 0.74750  0.11520  0.92780  Biso   1.000  O
  O61      1.0000 0.38480  0.75250  0.42780  Biso   1.000  O
  O62      1.0000 0.61520  0.24750  0.42780  Biso   1.000  O
  O63      1.0000 0.24750  0.38480  0.57220  Biso   1.000  O
  O64      1.0000 0.75250  0.61520  0.57220  Biso   1.000  O
  O65      1.0000 0.99930  0.14500  0.99890  Biso   1.000  O
  O66      1.0000 0.00070  0.85500  0.99890  Biso   1.000  O
  O67      1.0000 0.14500  0.00070  0.00110  Biso   1.000  O
  O68      1.0000 0.85500  0.99930  0.00110  Biso   1.000  O
  O69      1.0000 0.50070  0.64500  0.50110  Biso   1.000  O
  O70      1.0000 0.49930  0.35500  0.50110  Biso   1.000  O
  O71      1.0000 0.35500  0.50070  0.49890  Biso   1.000  O
  O72      1.0000 0.64500  0.49930  0.49890  Biso   1.000  O
  O73      1.0000 0.89310  0.17900  0.95360  Biso   1.000  O
  O74      1.0000 0.10690  0.82100  0.95360  Biso   1.000  O
  O75      1.0000 0.17900  0.10690  0.04640  Biso   1.000  O
  O76      1.0000 0.82100  0.89310  0.04640  Biso   1.000  O
  O77      1.0000 0.60690  0.67900  0.54640  Biso   1.000  O
  O78      1.0000 0.39310  0.32100  0.54640  Biso   1.000  O
  O79      1.0000 0.32100  0.60690  0.45360  Biso   1.000  O
  O80      1.0000 0.67900  0.39310  0.45360  Biso   1.000  O
  O81      1.0000 0.19650  0.20420  0.86260  Biso   1.000  O
  O82      1.0000 0.80350  0.79580  0.86260  Biso   1.000  O
  O83      1.0000 0.20420  0.80350  0.13740  Biso   1.000  O
  O84      1.0000 0.79580  0.19650  0.13740  Biso   1.000  O
  O85      1.0000 0.30350  0.70420  0.63740  Biso   1.000  O
  O86      1.0000 0.69650  0.29580  0.63740  Biso   1.000  O
  O87      1.0000 0.29580  0.30350  0.36260  Biso   1.000  O
  O88      1.0000 0.70420  0.69650  0.36260  Biso   1.000  O
  O89      1.0000 0.15920  0.15410  0.93950  Biso   1.000  O
  O90      1.0000 0.84080  0.84590  0.93950  Biso   1.000  O
  O91      1.0000 0.15410  0.84080  0.06050  Biso   1.000  O
  O92      1.0000 0.84590  0.15920  0.06050  Biso   1.000  O
  O93      1.0000 0.34080  0.65410  0.56050  Biso   1.000  O
  O94      1.0000 0.65920  0.34590  0.56050  Biso   1.000  O
  O95      1.0000 0.34590  0.34080  0.43950  Biso   1.000  O
  O96      1.0000 0.65410  0.65920  0.43950  Biso   1.000  O
  O97      1.0000 0.36540  0.11510  0.88330  Biso   1.000  O
  O98      1.0000 0.63460  0.88490  0.88330  Biso   1.000  O
  O99      1.0000 0.11510  0.63460  0.11670  Biso   1.000  O
  O100     1.0000 0.88490  0.36540  0.11670  Biso   1.000  O
  O101     1.0000 0.13460  0.61510  0.61670  Biso   1.000  O
  O102     1.0000 0.86540  0.38490  0.61670  Biso   1.000  O
  O103     1.0000 0.38490  0.13460  0.38330  Biso   1.000  O
  O104     1.0000 0.61510  0.86540  0.38330  Biso   1.000  O
  H1       1.0000 0.41120  0.13070  0.87510  Biso   1.000  H
  H2       1.0000 0.58880  0.86930  0.87510  Biso   1.000  H
  H3       1.0000 0.13070  0.58880  0.12490  Biso   1.000  H
  H4       1.0000 0.86930  0.41120  0.12490  Biso   1.000  H
  H5       1.0000 0.08880  0.63070  0.62490  Biso   1.000  H
  H6       1.0000 0.91120  0.36930  0.62490  Biso   1.000  H
  H7       1.0000 0.36930  0.08880  0.37510  Biso   1.000  H
  H8       1.0000 0.63070  0.91120  0.37510  Biso   1.000  H
  H9       1.0000 0.34820  0.14140  0.90930  Biso   1.000  H
  H10      1.0000 0.65180  0.85860  0.90930  Biso   1.000  H
  H11      1.0000 0.14140  0.65180  0.09070  Biso   1.000  H
  H12      1.0000 0.85860  0.34820  0.09070  Biso   1.000  H
  H13      1.0000 0.15180  0.64140  0.59070  Biso   1.000  H
  H14      1.0000 0.84820  0.35860  0.59070  Biso   1.000  H
  H15      1.0000 0.35860  0.15180  0.40930  Biso   1.000  H
  H16      1.0000 0.64140  0.84820  0.40930  Biso   1.000  H
  O105     1.0000 0.32760  0.25550  0.81070  Biso   1.000  O
  O106     1.0000 0.67240  0.74450  0.81070  Biso   1.000  O
  O107     1.0000 0.25550  0.67240  0.18930  Biso   1.000  O
  O108     1.0000 0.74450  0.32760  0.18930  Biso   1.000  O
  O109     1.0000 0.17240  0.75550  0.68930  Biso   1.000  O
  O110     1.0000 0.82760  0.24450  0.68930  Biso   1.000  O
  O111     1.0000 0.24450  0.17240  0.31070  Biso   1.000  O
  O112     1.0000 0.75550  0.82760  0.31070  Biso   1.000  O
  H17      1.0000 0.37040  0.25600  0.82800  Biso   1.000  H
  H18      1.0000 0.62960  0.74400  0.82800  Biso   1.000  H
  H19      1.0000 0.25600  0.62960  0.17200  Biso   1.000  H
  H20      1.0000 0.74400  0.37040  0.17200  Biso   1.000  H
  H21      1.0000 0.12960  0.75600  0.67200  Biso   1.000  H
  H22      1.0000 0.87040  0.24400  0.67200  Biso   1.000  H
  H23      1.0000 0.24400  0.12960  0.32800  Biso   1.000  H
  H24      1.0000 0.75600  0.87040  0.32800  Biso   1.000  H
  H25      1.0000 0.33740  0.27080  0.77950  Biso   1.000  H
  H26      1.0000 0.66260  0.72920  0.77950  Biso   1.000  H
  H27      1.0000 0.27080  0.66260  0.22050  Biso   1.000  H
  H28      1.0000 0.72920  0.33740  0.22050  Biso   1.000  H
  H29      1.0000 0.16260  0.77080  0.72050  Biso   1.000  H
  H30      1.0000 0.83740  0.22920  0.72050  Biso   1.000  H
  H31      1.0000 0.22920  0.16260  0.27950  Biso   1.000  H
  H32      1.0000 0.77080  0.83740  0.27950  Biso   1.000  H
  O113     1.0000 0.14030  0.08250  0.78370  Biso   1.000  O
  O114     1.0000 0.85970  0.91750  0.78370  Biso   1.000  O
  O115     1.0000 0.08250  0.85970  0.21630  Biso   1.000  O
  O116     1.0000 0.91750  0.14030  0.21630  Biso   1.000  O
  O117     1.0000 0.35970  0.58250  0.71630  Biso   1.000  O
  O118     1.0000 0.64030  0.41750  0.71630  Biso   1.000  O
  O119     1.0000 0.41750  0.35970  0.28370  Biso   1.000  O
  O120     1.0000 0.58250  0.64030  0.28370  Biso   1.000  O
  H33      1.0000 0.11200  0.08270  0.81130  Biso   1.000  H
  H34      1.0000 0.88800  0.91730  0.81130  Biso   1.000  H
  H35      1.0000 0.08270  0.88800  0.18870  Biso   1.000  H
  H36      1.0000 0.91730  0.11200  0.18870  Biso   1.000  H
  H37      1.0000 0.38800  0.58270  0.68870  Biso   1.000  H
  H38      1.0000 0.61200  0.41730  0.68870  Biso   1.000  H
  H39      1.0000 0.41730  0.38800  0.31130  Biso   1.000  H
  H40      1.0000 0.58270  0.61200  0.31130  Biso   1.000  H
  H41      1.0000 0.12240  0.11730  0.76290  Biso   1.000  H
  H42      1.0000 0.87760  0.88270  0.76290  Biso   1.000  H
  H43      1.0000 0.11730  0.87760  0.23710  Biso   1.000  H
  H44      1.0000 0.88270  0.12240  0.23710  Biso   1.000  H
  H45      1.0000 0.37760  0.61730  0.73710  Biso   1.000  H
  H46      1.0000 0.62240  0.38270  0.73710  Biso   1.000  H
  H47      1.0000 0.38270  0.37760  0.26290  Biso   1.000  H
  H48      1.0000 0.61730  0.62240  0.26290  Biso   1.000  H
  O121     1.0000 0.21490  0.03640  0.87640  Biso   1.000  O
  O122     1.0000 0.78510  0.96360  0.87640  Biso   1.000  O
  O123     1.0000 0.03640  0.78510  0.12360  Biso   1.000  O
  O124     1.0000 0.96360  0.21490  0.12360  Biso   1.000  O
  O125     1.0000 0.28510  0.53640  0.62360  Biso   1.000  O
  O126     1.0000 0.71490  0.46360  0.62360  Biso   1.000  O
  O127     1.0000 0.46360  0.28510  0.37640  Biso   1.000  O
  O128     1.0000 0.53640  0.71490  0.37640  Biso   1.000  O
  H49      1.0000 0.18540  0.06370  0.89630  Biso   1.000  H
  H50      1.0000 0.81460  0.93630  0.89630  Biso   1.000  H
  H51      1.0000 0.06370  0.81460  0.10370  Biso   1.000  H
  H52      1.0000 0.93630  0.18540  0.10370  Biso   1.000  H
  H53      1.0000 0.31460  0.56370  0.60370  Biso   1.000  H
  H54      1.0000 0.68540  0.43630  0.60370  Biso   1.000  H
  H55      1.0000 0.43630  0.31460  0.39630  Biso   1.000  H
  H56      1.0000 0.56370  0.68540  0.39630  Biso   1.000  H
  H57      1.0000 0.18790  0.99960  0.86280  Biso   1.000  H
  H58      1.0000 0.81210  0.00040  0.86280  Biso   1.000  H
  H59      1.0000 0.99960  0.81210  0.13720  Biso   1.000  H
  H60      1.0000 0.00040  0.18790  0.13720  Biso   1.000  H
  H61      1.0000 0.31210  0.49960  0.63720  Biso   1.000  H
  H62      1.0000 0.68790  0.50040  0.63720  Biso   1.000  H
  H63      1.0000 0.50040  0.31210  0.36280  Biso   1.000  H
  H64      1.0000 0.49960  0.68790  0.36280  Biso   1.000  H
  O129     1.0000 0.11520  0.13620  0.17540  Biso   1.000  O
  O130     1.0000 0.88480  0.86380  0.17540  Biso   1.000  O
  O131     1.0000 0.13620  0.88480  0.82460  Biso   1.000  O
  O132     1.0000 0.86380  0.11520  0.82460  Biso   1.000  O
  O133     1.0000 0.38480  0.63620  0.32460  Biso   1.000  O
  O134     1.0000 0.61520  0.36380  0.32460  Biso   1.000  O
  O135     1.0000 0.36380  0.38480  0.67540  Biso   1.000  O
  O136     1.0000 0.63620  0.61520  0.67540  Biso   1.000  O
  O137     1.0000 0.23400  0.08780  0.17290  Biso   1.000  O
  O138     1.0000 0.76600  0.91220  0.17290  Biso   1.000  O
  O139     1.0000 0.08780  0.76600  0.82710  Biso   1.000  O
  O140     1.0000 0.91220  0.23400  0.82710  Biso   1.000  O
  O141     1.0000 0.26600  0.58780  0.32710  Biso   1.000  O
  O142     1.0000 0.73400  0.41220  0.32710  Biso   1.000  O
  O143     1.0000 0.41220  0.26600  0.67290  Biso   1.000  O
  O144     1.0000 0.58780  0.73400  0.67290  Biso   1.000  O
  O145     1.0000 0.13730  0.00020  0.16250  Biso   1.000  O
  O146     1.0000 0.86270  0.99980  0.16250  Biso   1.000  O
  O147     1.0000 0.00020  0.86270  0.83750  Biso   1.000  O
  O148     1.0000 0.99980  0.13730  0.83750  Biso   1.000  O
  O149     1.0000 0.36270  0.50020  0.33750  Biso   1.000  O
  O150     1.0000 0.63730  0.49980  0.33750  Biso   1.000  O
  O151     1.0000 0.49980  0.36270  0.66250  Biso   1.000  O
  O152     1.0000 0.50020  0.63730  0.66250  Biso   1.000  O
  O153     1.0000 0.16630  0.05290  0.24470  Biso   1.000  O
  O154     1.0000 0.83370  0.94710  0.24470  Biso   1.000  O
  O155     1.0000 0.05290  0.83370  0.75530  Biso   1.000  O
  O156     1.0000 0.94710  0.16630  0.75530  Biso   1.000  O
  O157     1.0000 0.33370  0.55290  0.25530  Biso   1.000  O
  O158     1.0000 0.66630  0.44710  0.25530  Biso   1.000  O
  O159     1.0000 0.44710  0.33370  0.74470  Biso   1.000  O
  O160     1.0000 0.55290  0.66630  0.74470  Biso   1.000  O
  O161     1.0000 0.27230  0.25950  0.02750  Biso   1.000  O
  O162     1.0000 0.72770  0.74050  0.02750  Biso   1.000  O
  O163     1.0000 0.25950  0.72770  0.97250  Biso   1.000  O
  O164     1.0000 0.74050  0.27230  0.97250  Biso   1.000  O
  O165     1.0000 0.22770  0.75950  0.47250  Biso   1.000  O
  O166     1.0000 0.77230  0.24050  0.47250  Biso   1.000  O
  O167     1.0000 0.24050  0.22770  0.52750  Biso   1.000  O
  O168     1.0000 0.75950  0.77230  0.52750  Biso   1.000  O
  O169     1.0000 0.35750  0.16250  0.99280  Biso   1.000  O
  O170     1.0000 0.64250  0.83750  0.99280  Biso   1.000  O
  O171     1.0000 0.16250  0.64250  0.00720  Biso   1.000  O
  O172     1.0000 0.83750  0.35750  0.00720  Biso   1.000  O
  O173     1.0000 0.14250  0.66250  0.50720  Biso   1.000  O
  O174     1.0000 0.85750  0.33750  0.50720  Biso   1.000  O
  O175     1.0000 0.33750  0.14250  0.49280  Biso   1.000  O
  O176     1.0000 0.66250  0.85750  0.49280  Biso   1.000  O
  O177     1.0000 0.40640  0.28730  0.01600  Biso   1.000  O
  O178     1.0000 0.59360  0.71270  0.01600  Biso   1.000  O
  O179     1.0000 0.28730  0.59360  0.98400  Biso   1.000  O
  O180     1.0000 0.71270  0.40640  0.98400  Biso   1.000  O
  O181     1.0000 0.09360  0.78730  0.48400  Biso   1.000  O
  O182     1.0000 0.90640  0.21270  0.48400  Biso   1.000  O
  O183     1.0000 0.21270  0.09360  0.51600  Biso   1.000  O
  O184     1.0000 0.78730  0.90640  0.51600  Biso   1.000  O
  O185     1.0000 0.32440  0.27330  0.94610  Biso   1.000  O
  O186     1.0000 0.67560  0.72670  0.94610  Biso   1.000  O
  O187     1.0000 0.27330  0.67560  0.05390  Biso   1.000  O
  O188     1.0000 0.72670  0.32440  0.05390  Biso   1.000  O
  O189     1.0000 0.17560  0.77330  0.55390  Biso   1.000  O
  O190     1.0000 0.82440  0.22670  0.55390  Biso   1.000  O
  O191     1.0000 0.22670  0.17560  0.44610  Biso   1.000  O
  O192     1.0000 0.77330  0.82440  0.44610  Biso   1.000  O
  O193     1.0000 0.43400  0.01500  0.07760  Biso   1.000  O
  O194     1.0000 0.56600  0.98500  0.07760  Biso   1.000  O
  O195     1.0000 0.01500  0.56600  0.92240  Biso   1.000  O
  O196     1.0000 0.98500  0.43400  0.92240  Biso   1.000  O
  O197     1.0000 0.06600  0.51500  0.42240  Biso   1.000  O
  O198     1.0000 0.93400  0.48500  0.42240  Biso   1.000  O
  O199     1.0000 0.48500  0.06600  0.57760  Biso   1.000  O
  O200     1.0000 0.51500  0.93400  0.57760  Biso   1.000  O
  O201     1.0000 0.50880  0.06720  0.14000  Biso   1.000  O
  O202     1.0000 0.49120  0.93280  0.14000  Biso   1.000  O
  O203     1.0000 0.06720  0.49120  0.86000  Biso   1.000  O
  O204     1.0000 0.93280  0.50880  0.86000  Biso   1.000  O
  O205     1.0000 0.99120  0.56720  0.36000  Biso   1.000  O
  O206     1.0000 0.00880  0.43280  0.36000  Biso   1.000  O
  O207     1.0000 0.43280  0.99120  0.64000  Biso   1.000  O
  O208     1.0000 0.56720  0.00880  0.64000  Biso   1.000  O
  O209     1.0000 0.35090  0.15160  0.14330  Biso   1.000  O
  O210     1.0000 0.64910  0.84840  0.14330  Biso   1.000  O
  O211     1.0000 0.15160  0.64910  0.85670  Biso   1.000  O
  O212     1.0000 0.84840  0.35090  0.85670  Biso   1.000  O
  O213     1.0000 0.14910  0.65160  0.35670  Biso   1.000  O
  O214     1.0000 0.85090  0.34840  0.35670  Biso   1.000  O
  O215     1.0000 0.34840  0.14910  0.64330  Biso   1.000  O
  O216     1.0000 0.65160  0.85090  0.64330  Biso   1.000  O
  H65      1.0000 0.34210  0.11110  0.16200  Biso   1.000  H
  H66      1.0000 0.65790  0.88890  0.16200  Biso   1.000  H
  H67      1.0000 0.11110  0.65790  0.83800  Biso   1.000  H
  H68      1.0000 0.88890  0.34210  0.83800  Biso   1.000  H
  H69      1.0000 0.15790  0.61110  0.33800  Biso   1.000  H
  H70      1.0000 0.84210  0.38890  0.33800  Biso   1.000  H
  H71      1.0000 0.38890  0.15790  0.66200  Biso   1.000  H
  H72      1.0000 0.61110  0.84210  0.66200  Biso   1.000  H
  H73      1.0000 0.38120  0.13720  0.11860  Biso   1.000  H
  H74      1.0000 0.61880  0.86280  0.11860  Biso   1.000  H
  H75      1.0000 0.13720  0.61880  0.88140  Biso   1.000  H
  H76      1.0000 0.86280  0.38120  0.88140  Biso   1.000  H
  H77      1.0000 0.11880  0.63720  0.38140  Biso   1.000  H
  H78      1.0000 0.88120  0.36280  0.38140  Biso   1.000  H
  H79      1.0000 0.36280  0.11880  0.61860  Biso   1.000  H
  H80      1.0000 0.63720  0.88120  0.61860  Biso   1.000  H
  O217     1.0000 0.00000  0.00000  0.09050  Biso   1.000  O
  O218     1.0000 0.00000  0.00000  0.90950  Biso   1.000  O
  O219     1.0000 0.50000  0.50000  0.40950  Biso   1.000  O
  O220     1.0000 0.50000  0.50000  0.59050  Biso   1.000  O
  H81      1.0000 0.95870  0.01950  0.10400  Biso   1.000  H
  H82      1.0000 0.04130  0.98050  0.10400  Biso   1.000  H
  H83      1.0000 0.01950  0.04130  0.89600  Biso   1.000  H
  H84      1.0000 0.98050  0.95870  0.89600  Biso   1.000  H
  H85      1.0000 0.54130  0.51950  0.39600  Biso   1.000  H
  H86      1.0000 0.45870  0.48050  0.39600  Biso   1.000  H
  H87      1.0000 0.48050  0.54130  0.60400  Biso   1.000  H
  H88      1.0000 0.51950  0.45870  0.60400  Biso   1.000  H
  O221     1.0000 0.34710  0.46300  0.12400  Biso   1.000  O
  O222     1.0000 0.65290  0.53700  0.12400  Biso   1.000  O
  O223     1.0000 0.46300  0.65290  0.87600  Biso   1.000  O
  O224     1.0000 0.53700  0.34710  0.87600  Biso   1.000  O
  O225     1.0000 0.15290  0.96300  0.37600  Biso   1.000  O
  O226     1.0000 0.84710  0.03700  0.37600  Biso   1.000  O
  O227     1.0000 0.03700  0.15290  0.62400  Biso   1.000  O
  O228     1.0000 0.96300  0.84710  0.62400  Biso   1.000  O
  H89      1.0000 0.35890  0.42840  0.10130  Biso   1.000  H
  H90      1.0000 0.64110  0.57160  0.10130  Biso   1.000  H
  H91      1.0000 0.42840  0.64110  0.89870  Biso   1.000  H
  H92      1.0000 0.57160  0.35890  0.89870  Biso   1.000  H
  H93      1.0000 0.14110  0.92840  0.39870  Biso   1.000  H
  H94      1.0000 0.85890  0.07160  0.39870  Biso   1.000  H
  H95      1.0000 0.07160  0.14110  0.60130  Biso   1.000  H
  H96      1.0000 0.92840  0.85890  0.60130  Biso   1.000  H
  H97      1.0000 0.33240  0.50420  0.10790  Biso   1.000  H
  H98      1.0000 0.66760  0.49580  0.10790  Biso   1.000  H
  H99      1.0000 0.50420  0.66760  0.89210  Biso   1.000  H
  H100     1.0000 0.49580  0.33240  0.89210  Biso   1.000  H
  H101     1.0000 0.16760  0.00420  0.39210  Biso   1.000  H
  H102     1.0000 0.83240  0.99580  0.39210  Biso   1.000  H
  H103     1.0000 0.99580  0.16760  0.60790  Biso   1.000  H
  H104     1.0000 0.00420  0.83240  0.60790  Biso   1.000  H
  O229     1.0000 0.43760  0.27560  0.14650  Biso   1.000  O
  O230     1.0000 0.56240  0.72440  0.14650  Biso   1.000  O
  O231     1.0000 0.27560  0.56240  0.85350  Biso   1.000  O
  O232     1.0000 0.72440  0.43760  0.85350  Biso   1.000  O
  O233     1.0000 0.06240  0.77560  0.35350  Biso   1.000  O
  O234     1.0000 0.93760  0.22440  0.35350  Biso   1.000  O
  O235     1.0000 0.22440  0.06240  0.64650  Biso   1.000  O
  O236     1.0000 0.77560  0.93760  0.64650  Biso   1.000  O
  H105     1.0000 0.40680  0.23790  0.13910  Biso   1.000  H
  H106     1.0000 0.59320  0.76210  0.13910  Biso   1.000  H
  H107     1.0000 0.23790  0.59320  0.86090  Biso   1.000  H
  H108     1.0000 0.76210  0.40680  0.86090  Biso   1.000  H
  H109     1.0000 0.09320  0.73790  0.36090  Biso   1.000  H
  H110     1.0000 0.90680  0.26210  0.36090  Biso   1.000  H
  H111     1.0000 0.26210  0.09320  0.63910  Biso   1.000  H
  H112     1.0000 0.73790  0.90680  0.63910  Biso   1.000  H
  H113     1.0000 0.45760  0.26650  0.17660  Biso   1.000  H
  H114     1.0000 0.54240  0.73350  0.17660  Biso   1.000  H
  H115     1.0000 0.26650  0.54240  0.82340  Biso   1.000  H
  H116     1.0000 0.73350  0.45760  0.82340  Biso   1.000  H
  H117     1.0000 0.04240  0.76650  0.32340  Biso   1.000  H
  H118     1.0000 0.95760  0.23350  0.32340  Biso   1.000  H
  H119     1.0000 0.23350  0.04240  0.67660  Biso   1.000  H
  H120     1.0000 0.76650  0.95760  0.67660  Biso   1.000  H
  C1       1.0000 0.30670  0.97130  0.75420  Biso   1.000  C
  C2       1.0000 0.69330  0.02870  0.75420  Biso   1.000  C
  C3       1.0000 0.97130  0.69330  0.24580  Biso   1.000  C
  C4       1.0000 0.02870  0.30670  0.24580  Biso   1.000  C
  C5       1.0000 0.19330  0.47130  0.74580  Biso   1.000  C
  C6       1.0000 0.80670  0.52870  0.74580  Biso   1.000  C
  C7       1.0000 0.52870  0.19330  0.25420  Biso   1.000  C
  C8       1.0000 0.47130  0.80670  0.25420  Biso   1.000  C
  C9       1.0000 0.32410  0.89490  0.72590  Biso   1.000  C
  C10      1.0000 0.67590  0.10510  0.72590  Biso   1.000  C
  C11      1.0000 0.89490  0.67590  0.27410  Biso   1.000  C
  C12      1.0000 0.10510  0.32410  0.27410  Biso   1.000  C
  C13      1.0000 0.17590  0.39490  0.77410  Biso   1.000  C
  C14      1.0000 0.82410  0.60510  0.77410  Biso   1.000  C
  C15      1.0000 0.60510  0.17590  0.22590  Biso   1.000  C
  C16      1.0000 0.39490  0.82410  0.22590  Biso   1.000  C
  H121     1.0000 0.34110  0.90590  0.69020  Biso   1.000  H
  H122     1.0000 0.65890  0.09410  0.69020  Biso   1.000  H
  H123     1.0000 0.90590  0.65890  0.30980  Biso   1.000  H
  H124     1.0000 0.09410  0.34110  0.30980  Biso   1.000  H
  H125     1.0000 0.15890  0.40590  0.80980  Biso   1.000  H
  H126     1.0000 0.84110  0.59410  0.80980  Biso   1.000  H
  H127     1.0000 0.59410  0.15890  0.19020  Biso   1.000  H
  H128     1.0000 0.40590  0.84110  0.19020  Biso   1.000  H
  H129     1.0000 0.27680  0.86350  0.72410  Biso   1.000  H
  H130     1.0000 0.72320  0.13650  0.72410  Biso   1.000  H
  H131     1.0000 0.86350  0.72320  0.27590  Biso   1.000  H
  H132     1.0000 0.13650  0.27680  0.27590  Biso   1.000  H
  H133     1.0000 0.22320  0.36350  0.77590  Biso   1.000  H
  H134     1.0000 0.77680  0.63650  0.77590  Biso   1.000  H
  H135     1.0000 0.63650  0.22320  0.22410  Biso   1.000  H
  H136     1.0000 0.36350  0.77680  0.22410  Biso   1.000  H
  C17      1.0000 0.30500  0.74370  0.78410  Biso   1.000  C
  C18      1.0000 0.69500  0.25630  0.78410  Biso   1.000  C
  C19      1.0000 0.74370  0.69500  0.21590  Biso   1.000  C
  C20      1.0000 0.25630  0.30500  0.21590  Biso   1.000  C
  C21      1.0000 0.19500  0.24370  0.71590  Biso   1.000  C
  C22      1.0000 0.80500  0.75630  0.71590  Biso   1.000  C
  C23      1.0000 0.75630  0.19500  0.28410  Biso   1.000  C
  C24      1.0000 0.24370  0.80500  0.28410  Biso   1.000  C
  C25      1.0000 0.37230  0.76610  0.75040  Biso   1.000  C
  C26      1.0000 0.62770  0.23390  0.75040  Biso   1.000  C
  C27      1.0000 0.76610  0.62770  0.24960  Biso   1.000  C
  C28      1.0000 0.23390  0.37230  0.24960  Biso   1.000  C
  C29      1.0000 0.12770  0.26610  0.74960  Biso   1.000  C
  C30      1.0000 0.87230  0.73390  0.74960  Biso   1.000  C
  C31      1.0000 0.73390  0.12770  0.25040  Biso   1.000  C
  C32      1.0000 0.26610  0.87230  0.25040  Biso   1.000  C
  H137     1.0000 0.36160  0.75160  0.71410  Biso   1.000  H
  H138     1.0000 0.63840  0.24840  0.71410  Biso   1.000  H
  H139     1.0000 0.75160  0.63840  0.28590  Biso   1.000  H
  H140     1.0000 0.24840  0.36160  0.28590  Biso   1.000  H
  H141     1.0000 0.13840  0.25160  0.78590  Biso   1.000  H
  H142     1.0000 0.86160  0.74840  0.78590  Biso   1.000  H
  H143     1.0000 0.74840  0.13840  0.21410  Biso   1.000  H
  H144     1.0000 0.25160  0.86160  0.21410  Biso   1.000  H
  H145     1.0000 0.41890  0.73820  0.76180  Biso   1.000  H
  H146     1.0000 0.58110  0.26180  0.76180  Biso   1.000  H
  H147     1.0000 0.73820  0.58110  0.23820  Biso   1.000  H
  H148     1.0000 0.26180  0.41890  0.23820  Biso   1.000  H
  H149     1.0000 0.08110  0.23820  0.73820  Biso   1.000  H
  H150     1.0000 0.91890  0.76180  0.73820  Biso   1.000  H
  H151     1.0000 0.76180  0.08110  0.26180  Biso   1.000  H
  H152     1.0000 0.23820  0.91890  0.26180  Biso   1.000  H
  C33      1.0000 0.52310  0.87880  0.78100  Biso   1.000  C
  C34      1.0000 0.47690  0.12120  0.78100  Biso   1.000  C
  C35      1.0000 0.87880  0.47690  0.21900  Biso   1.000  C
  C36      1.0000 0.12120  0.52310  0.21900  Biso   1.000  C
  C37      1.0000 0.97690  0.37880  0.71900  Biso   1.000  C
  C38      1.0000 0.02310  0.62120  0.71900  Biso   1.000  C
  C39      1.0000 0.62120  0.97690  0.28100  Biso   1.000  C
  C40      1.0000 0.37880  0.02310  0.28100  Biso   1.000  C
  C41      1.0000 0.46660  0.87540  0.73570  Biso   1.000  C
  C42      1.0000 0.53340  0.12460  0.73570  Biso   1.000  C
  C43      1.0000 0.87540  0.53340  0.26430  Biso   1.000  C
  C44      1.0000 0.12460  0.46660  0.26430  Biso   1.000  C
  C45      1.0000 0.03340  0.37540  0.76430  Biso   1.000  C
  C46      1.0000 0.96660  0.62460  0.76430  Biso   1.000  C
  C47      1.0000 0.62460  0.03340  0.23570  Biso   1.000  C
  C48      1.0000 0.37540  0.96660  0.23570  Biso   1.000  C
  H153     1.0000 0.46360  0.92660  0.71920  Biso   1.000  H
  H154     1.0000 0.53640  0.07340  0.71920  Biso   1.000  H
  H155     1.0000 0.92660  0.53640  0.28080  Biso   1.000  H
  H156     1.0000 0.07340  0.46360  0.28080  Biso   1.000  H
  H157     1.0000 0.03640  0.42660  0.78080  Biso   1.000  H
  H158     1.0000 0.96360  0.57340  0.78080  Biso   1.000  H
  H159     1.0000 0.57340  0.03640  0.21920  Biso   1.000  H
  H160     1.0000 0.42660  0.96360  0.21920  Biso   1.000  H
  H161     1.0000 0.48570  0.83830  0.70970  Biso   1.000  H
  H162     1.0000 0.51430  0.16170  0.70970  Biso   1.000  H
  H163     1.0000 0.83830  0.51430  0.29030  Biso   1.000  H
  H164     1.0000 0.16170  0.48570  0.29030  Biso   1.000  H
  H165     1.0000 0.01430  0.33830  0.79030  Biso   1.000  H
  H166     1.0000 0.98570  0.66170  0.79030  Biso   1.000  H
  H167     1.0000 0.66170  0.01430  0.20970  Biso   1.000  H
  H168     1.0000 0.33830  0.98570  0.20970  Biso   1.000  H
  C49      1.0000 0.10430  0.32420  0.06080  Biso   1.000  C
  C50      1.0000 0.89570  0.67580  0.06080  Biso   1.000  C
  C51      1.0000 0.32420  0.89570  0.93920  Biso   1.000  C
  C52      1.0000 0.67580  0.10430  0.93920  Biso   1.000  C
  C53      1.0000 0.39570  0.82420  0.43920  Biso   1.000  C
  C54      1.0000 0.60430  0.17580  0.43920  Biso   1.000  C
  C55      1.0000 0.17580  0.39570  0.56080  Biso   1.000  C
  C56      1.0000 0.82420  0.60430  0.56080  Biso   1.000  C
  C57      1.0000 0.08390  0.34660  0.00600  Biso   1.000  C
  C58      1.0000 0.91610  0.65340  0.00600  Biso   1.000  C
  C59      1.0000 0.34660  0.91610  0.99400  Biso   1.000  C
  C60      1.0000 0.65340  0.08390  0.99400  Biso   1.000  C
  C61      1.0000 0.41610  0.84660  0.49400  Biso   1.000  C
  C62      1.0000 0.58390  0.15340  0.49400  Biso   1.000  C
  C63      1.0000 0.15340  0.41610  0.50600  Biso   1.000  C
  C64      1.0000 0.84660  0.58390  0.50600  Biso   1.000  C
  H169     1.0000 0.03360  0.37340  0.00630  Biso   1.000  H
  H170     1.0000 0.96640  0.62660  0.00630  Biso   1.000  H
  H171     1.0000 0.37340  0.96640  0.99370  Biso   1.000  H
  H172     1.0000 0.62660  0.03360  0.99370  Biso   1.000  H
  H173     1.0000 0.46640  0.87340  0.49370  Biso   1.000  H
  H174     1.0000 0.53360  0.12660  0.49370  Biso   1.000  H
  H175     1.0000 0.12660  0.46640  0.50630  Biso   1.000  H
  H176     1.0000 0.87340  0.53360  0.50630  Biso   1.000  H
  H177     1.0000 0.12290  0.38340  0.99310  Biso   1.000  H
  H178     1.0000 0.87710  0.61660  0.99310  Biso   1.000  H
  H179     1.0000 0.38340  0.87710  0.00690  Biso   1.000  H
  H180     1.0000 0.61660  0.12290  0.00690  Biso   1.000  H
  H181     1.0000 0.37710  0.88340  0.50690  Biso   1.000  H
  H182     1.0000 0.62290  0.11660  0.50690  Biso   1.000  H
  H183     1.0000 0.11660  0.37710  0.49310  Biso   1.000  H
  H184     1.0000 0.88340  0.62290  0.49310  Biso   1.000  H
  C65      1.0000 0.96100  0.19120  0.97060  Biso   1.000  C
  C66      1.0000 0.03900  0.80880  0.97060  Biso   1.000  C
  C67      1.0000 0.19120  0.03900  0.02940  Biso   1.000  C
  C68      1.0000 0.80880  0.96100  0.02940  Biso   1.000  C
  C69      1.0000 0.53900  0.69120  0.52940  Biso   1.000  C
  C70      1.0000 0.46100  0.30880  0.52940  Biso   1.000  C
  C71      1.0000 0.30880  0.53900  0.47060  Biso   1.000  C
  C72      1.0000 0.69120  0.46100  0.47060  Biso   1.000  C
  C73      1.0000 0.99890  0.26520  0.95170  Biso   1.000  C
  C74      1.0000 0.00110  0.73480  0.95170  Biso   1.000  C
  C75      1.0000 0.26520  0.00110  0.04830  Biso   1.000  C
  C76      1.0000 0.73480  0.99890  0.04830  Biso   1.000  C
  C77      1.0000 0.50110  0.76520  0.54830  Biso   1.000  C
  C78      1.0000 0.49890  0.23480  0.54830  Biso   1.000  C
  C79      1.0000 0.23480  0.50110  0.45170  Biso   1.000  C
  C80      1.0000 0.76520  0.49890  0.45170  Biso   1.000  C
  H185     1.0000 0.99830  0.26480  0.91350  Biso   1.000  H
  H186     1.0000 0.00170  0.73520  0.91350  Biso   1.000  H
  H187     1.0000 0.26480  0.00170  0.08650  Biso   1.000  H
  H188     1.0000 0.73520  0.99830  0.08650  Biso   1.000  H
  H189     1.0000 0.50170  0.76480  0.58650  Biso   1.000  H
  H190     1.0000 0.49830  0.23520  0.58650  Biso   1.000  H
  H191     1.0000 0.23520  0.50170  0.41350  Biso   1.000  H
  H192     1.0000 0.76480  0.49830  0.41350  Biso   1.000  H
  H193     1.0000 0.96680  0.30900  0.96310  Biso   1.000  H
  H194     1.0000 0.03320  0.69100  0.96310  Biso   1.000  H
  H195     1.0000 0.30900  0.03320  0.03690  Biso   1.000  H
  H196     1.0000 0.69100  0.96680  0.03690  Biso   1.000  H
  H197     1.0000 0.53320  0.80900  0.53690  Biso   1.000  H
  H198     1.0000 0.46680  0.19100  0.53690  Biso   1.000  H
  H199     1.0000 0.19100  0.53320  0.46310  Biso   1.000  H
  H200     1.0000 0.80900  0.46680  0.46310  Biso   1.000  H
  C81      1.0000 0.16400  0.20970  0.90640  Biso   1.000  C
  C82      1.0000 0.83600  0.79030  0.90640  Biso   1.000  C
  C83      1.0000 0.20970  0.83600  0.09360  Biso   1.000  C
  C84      1.0000 0.79030  0.16400  0.09360  Biso   1.000  C
  C85      1.0000 0.33600  0.70970  0.59360  Biso   1.000  C
  C86      1.0000 0.66400  0.29030  0.59360  Biso   1.000  C
  C87      1.0000 0.29030  0.33600  0.40640  Biso   1.000  C
  C88      1.0000 0.70970  0.66400  0.40640  Biso   1.000  C
  C89      1.0000 0.13180  0.28690  0.92210  Biso   1.000  C
  C90      1.0000 0.86820  0.71310  0.92210  Biso   1.000  C
  C91      1.0000 0.28690  0.86820  0.07790  Biso   1.000  C
  C92      1.0000 0.71310  0.13180  0.07790  Biso   1.000  C
  C93      1.0000 0.36820  0.78690  0.57790  Biso   1.000  C
  C94      1.0000 0.63180  0.21310  0.57790  Biso   1.000  C
  C95      1.0000 0.21310  0.36820  0.42210  Biso   1.000  C
  C96      1.0000 0.78690  0.63180  0.42210  Biso   1.000  C
  H201     1.0000 0.10260  0.30920  0.89290  Biso   1.000  H
  H202     1.0000 0.89740  0.69080  0.89290  Biso   1.000  H
  H203     1.0000 0.30920  0.89740  0.10710  Biso   1.000  H
  H204     1.0000 0.69080  0.10260  0.10710  Biso   1.000  H
  H205     1.0000 0.39740  0.80920  0.60710  Biso   1.000  H
  H206     1.0000 0.60260  0.19080  0.60710  Biso   1.000  H
  H207     1.0000 0.19080  0.39740  0.39290  Biso   1.000  H
  H208     1.0000 0.80920  0.60260  0.39290  Biso   1.000  H
  H209     1.0000 0.17470  0.32230  0.93040  Biso   1.000  H
  H210     1.0000 0.82530  0.67770  0.93040  Biso   1.000  H
  H211     1.0000 0.32230  0.82530  0.06960  Biso   1.000  H
  H212     1.0000 0.67770  0.17470  0.06960  Biso   1.000  H
  H213     1.0000 0.32530  0.82230  0.56960  Biso   1.000  H
  H214     1.0000 0.67470  0.17770  0.56960  Biso   1.000  H
  H215     1.0000 0.17770  0.32530  0.43040  Biso   1.000  H
  H216     1.0000 0.82230  0.67470  0.43040  Biso   1.000  H
  H217     1.0000 0.95910  0.97950  0.10400  Biso   1.000  H
  H218     1.0000 0.04090  0.02050  0.10400  Biso   1.000  H
  H219     1.0000 0.97950  0.04090  0.89600  Biso   1.000  H
  H220     1.0000 0.02050  0.95910  0.89600  Biso   1.000  H
  H221     1.0000 0.54090  0.47950  0.39600  Biso   1.000  H
  H222     1.0000 0.45910  0.52050  0.39600  Biso   1.000  H
  H223     1.0000 0.52050  0.54090  0.60400  Biso   1.000  H
  H224     1.0000 0.47950  0.45910  0.60400  Biso   1.000  H
