data_image0
_cell_length_a       26.307
_cell_length_b       26.307
_cell_length_c       26.307
_cell_angle_alpha    90
_cell_angle_beta     90
_cell_angle_gamma    90

_symmetry_space_group_name_H-M    "P 1"
_symmetry_int_tables_number       1

loop_
  _symmetry_equiv_pos_as_xyz
  'x, y, z'

loop_
  _atom_site_label
  _atom_site_occupancy
  _atom_site_fract_x
  _atom_site_fract_y
  _atom_site_fract_z
  _atom_site_thermal_displace_type
  _atom_site_B_iso_or_equiv
  _atom_site_type_symbol
  C1       1.0000 0.69900  0.63350  0.86650  Biso   1.000  C
  C2       1.0000 0.30100  0.36650  0.86650  Biso   1.000  C
  C3       1.0000 0.30100  0.63350  0.13350  Biso   1.000  C
  C4       1.0000 0.69900  0.36650  0.13350  Biso   1.000  C
  C5       1.0000 0.86650  0.69900  0.63350  Biso   1.000  C
  C6       1.0000 0.86650  0.30100  0.36650  Biso   1.000  C
  C7       1.0000 0.13350  0.30100  0.63350  Biso   1.000  C
  C8       1.0000 0.13350  0.69900  0.36650  Biso   1.000  C
  C9       1.0000 0.63350  0.86650  0.69900  Biso   1.000  C
  C10      1.0000 0.36650  0.86650  0.30100  Biso   1.000  C
  C11      1.0000 0.63350  0.13350  0.30100  Biso   1.000  C
  C12      1.0000 0.36650  0.13350  0.69900  Biso   1.000  C
  C13      1.0000 0.63350  0.69900  0.13350  Biso   1.000  C
  C14      1.0000 0.36650  0.30100  0.13350  Biso   1.000  C
  C15      1.0000 0.63350  0.30100  0.86650  Biso   1.000  C
  C16      1.0000 0.36650  0.69900  0.86650  Biso   1.000  C
  C17      1.0000 0.69900  0.86650  0.36650  Biso   1.000  C
  C18      1.0000 0.30100  0.86650  0.63350  Biso   1.000  C
  C19      1.0000 0.30100  0.13350  0.36650  Biso   1.000  C
  C20      1.0000 0.69900  0.13350  0.63350  Biso   1.000  C
  C21      1.0000 0.86650  0.63350  0.30100  Biso   1.000  C
  C22      1.0000 0.86650  0.36650  0.69900  Biso   1.000  C
  C23      1.0000 0.13350  0.63350  0.69900  Biso   1.000  C
  C24      1.0000 0.13350  0.36650  0.30100  Biso   1.000  C
  C25      1.0000 0.69900  0.13350  0.36650  Biso   1.000  C
  C26      1.0000 0.30100  0.86650  0.36650  Biso   1.000  C
  C27      1.0000 0.30100  0.13350  0.63350  Biso   1.000  C
  C28      1.0000 0.69900  0.86650  0.63350  Biso   1.000  C
  C29      1.0000 0.86650  0.19900  0.13350  Biso   1.000  C
  C30      1.0000 0.86650  0.80100  0.86650  Biso   1.000  C
  C31      1.0000 0.13350  0.80100  0.13350  Biso   1.000  C
  C32      1.0000 0.13350  0.19900  0.86650  Biso   1.000  C
  C33      1.0000 0.63350  0.36650  0.19900  Biso   1.000  C
  C34      1.0000 0.36650  0.36650  0.80100  Biso   1.000  C
  C35      1.0000 0.63350  0.63350  0.80100  Biso   1.000  C
  C36      1.0000 0.36650  0.63350  0.19900  Biso   1.000  C
  C37      1.0000 0.63350  0.19900  0.63350  Biso   1.000  C
  C38      1.0000 0.36650  0.80100  0.63350  Biso   1.000  C
  C39      1.0000 0.63350  0.80100  0.36650  Biso   1.000  C
  C40      1.0000 0.36650  0.19900  0.36650  Biso   1.000  C
  C41      1.0000 0.69900  0.36650  0.86650  Biso   1.000  C
  C42      1.0000 0.30100  0.36650  0.13350  Biso   1.000  C
  C43      1.0000 0.30100  0.63350  0.86650  Biso   1.000  C
  C44      1.0000 0.69900  0.63350  0.13350  Biso   1.000  C
  C45      1.0000 0.86650  0.13350  0.80100  Biso   1.000  C
  C46      1.0000 0.86650  0.86650  0.19900  Biso   1.000  C
  C47      1.0000 0.13350  0.13350  0.19900  Biso   1.000  C
  C48      1.0000 0.13350  0.86650  0.80100  Biso   1.000  C
  C49      1.0000 0.19900  0.63350  0.36650  Biso   1.000  C
  C50      1.0000 0.80100  0.36650  0.36650  Biso   1.000  C
  C51      1.0000 0.80100  0.63350  0.63350  Biso   1.000  C
  C52      1.0000 0.19900  0.36650  0.63350  Biso   1.000  C
  C53      1.0000 0.36650  0.69900  0.13350  Biso   1.000  C
  C54      1.0000 0.36650  0.30100  0.86650  Biso   1.000  C
  C55      1.0000 0.63350  0.30100  0.13350  Biso   1.000  C
  C56      1.0000 0.63350  0.69900  0.86650  Biso   1.000  C
  C57      1.0000 0.13350  0.86650  0.19900  Biso   1.000  C
  C58      1.0000 0.86650  0.86650  0.80100  Biso   1.000  C
  C59      1.0000 0.13350  0.13350  0.80100  Biso   1.000  C
  C60      1.0000 0.86650  0.13350  0.19900  Biso   1.000  C
  C61      1.0000 0.13350  0.69900  0.63350  Biso   1.000  C
  C62      1.0000 0.86650  0.30100  0.63350  Biso   1.000  C
  C63      1.0000 0.13350  0.30100  0.36650  Biso   1.000  C
  C64      1.0000 0.86650  0.69900  0.36650  Biso   1.000  C
  C65      1.0000 0.19900  0.86650  0.86650  Biso   1.000  C
  C66      1.0000 0.80100  0.86650  0.13350  Biso   1.000  C
  C67      1.0000 0.80100  0.13350  0.86650  Biso   1.000  C
  C68      1.0000 0.19900  0.13350  0.13350  Biso   1.000  C
  C69      1.0000 0.36650  0.63350  0.80100  Biso   1.000  C
  C70      1.0000 0.36650  0.36650  0.19900  Biso   1.000  C
  C71      1.0000 0.63350  0.63350  0.19900  Biso   1.000  C
  C72      1.0000 0.63350  0.36650  0.80100  Biso   1.000  C
  C73      1.0000 0.19900  0.13350  0.86650  Biso   1.000  C
  C74      1.0000 0.80100  0.86650  0.86650  Biso   1.000  C
  C75      1.0000 0.80100  0.13350  0.13350  Biso   1.000  C
  C76      1.0000 0.19900  0.86650  0.13350  Biso   1.000  C
  C77      1.0000 0.36650  0.19900  0.63350  Biso   1.000  C
  C78      1.0000 0.36650  0.80100  0.36650  Biso   1.000  C
  C79      1.0000 0.63350  0.80100  0.63350  Biso   1.000  C
  C80      1.0000 0.63350  0.19900  0.36650  Biso   1.000  C
  C81      1.0000 0.13350  0.36650  0.69900  Biso   1.000  C
  C82      1.0000 0.86650  0.36650  0.30100  Biso   1.000  C
  C83      1.0000 0.13350  0.63350  0.30100  Biso   1.000  C
  C84      1.0000 0.86650  0.63350  0.69900  Biso   1.000  C
  C85      1.0000 0.13350  0.19900  0.13350  Biso   1.000  C
  C86      1.0000 0.86650  0.80100  0.13350  Biso   1.000  C
  C87      1.0000 0.13350  0.80100  0.86650  Biso   1.000  C
  C88      1.0000 0.86650  0.19900  0.86650  Biso   1.000  C
  C89      1.0000 0.19900  0.36650  0.36650  Biso   1.000  C
  C90      1.0000 0.80100  0.36650  0.63350  Biso   1.000  C
  C91      1.0000 0.80100  0.63350  0.36650  Biso   1.000  C
  C92      1.0000 0.19900  0.63350  0.63350  Biso   1.000  C
  C93      1.0000 0.36650  0.13350  0.30100  Biso   1.000  C
  C94      1.0000 0.36650  0.86650  0.69900  Biso   1.000  C
  C95      1.0000 0.63350  0.13350  0.69900  Biso   1.000  C
  C96      1.0000 0.63350  0.86650  0.30100  Biso   1.000  C
  H1       1.0000 0.72820  0.61840  0.88160  Biso   1.000  H
  H2       1.0000 0.27180  0.38160  0.88160  Biso   1.000  H
  H3       1.0000 0.27180  0.61840  0.11840  Biso   1.000  H
  H4       1.0000 0.72820  0.38160  0.11840  Biso   1.000  H
  H5       1.0000 0.88160  0.72820  0.61840  Biso   1.000  H
  H6       1.0000 0.88160  0.27180  0.38160  Biso   1.000  H
  H7       1.0000 0.11840  0.27180  0.61840  Biso   1.000  H
  H8       1.0000 0.11840  0.72820  0.38160  Biso   1.000  H
  H9       1.0000 0.61840  0.88160  0.72820  Biso   1.000  H
  H10      1.0000 0.38160  0.88160  0.27180  Biso   1.000  H
  H11      1.0000 0.61840  0.11840  0.27180  Biso   1.000  H
  H12      1.0000 0.38160  0.11840  0.72820  Biso   1.000  H
  H13      1.0000 0.61840  0.72820  0.11840  Biso   1.000  H
  H14      1.0000 0.38160  0.27180  0.11840  Biso   1.000  H
  H15      1.0000 0.61840  0.27180  0.88160  Biso   1.000  H
  H16      1.0000 0.38160  0.72820  0.88160  Biso   1.000  H
  H17      1.0000 0.72820  0.88160  0.38160  Biso   1.000  H
  H18      1.0000 0.27180  0.88160  0.61840  Biso   1.000  H
  H19      1.0000 0.27180  0.11840  0.38160  Biso   1.000  H
  H20      1.0000 0.72820  0.11840  0.61840  Biso   1.000  H
  H21      1.0000 0.88160  0.61840  0.27180  Biso   1.000  H
  H22      1.0000 0.88160  0.38160  0.72820  Biso   1.000  H
  H23      1.0000 0.11840  0.61840  0.72820  Biso   1.000  H
  H24      1.0000 0.11840  0.38160  0.27180  Biso   1.000  H
  H25      1.0000 0.72820  0.11840  0.38160  Biso   1.000  H
  H26      1.0000 0.27180  0.88160  0.38160  Biso   1.000  H
  H27      1.0000 0.27180  0.11840  0.61840  Biso   1.000  H
  H28      1.0000 0.72820  0.88160  0.61840  Biso   1.000  H
  H29      1.0000 0.88160  0.22820  0.11840  Biso   1.000  H
  H30      1.0000 0.88160  0.77180  0.88160  Biso   1.000  H
  H31      1.0000 0.11840  0.77180  0.11840  Biso   1.000  H
  H32      1.0000 0.11840  0.22820  0.88160  Biso   1.000  H
  H33      1.0000 0.61840  0.38160  0.22820  Biso   1.000  H
  H34      1.0000 0.38160  0.38160  0.77180  Biso   1.000  H
  H35      1.0000 0.61840  0.61840  0.77180  Biso   1.000  H
  H36      1.0000 0.38160  0.61840  0.22820  Biso   1.000  H
  H37      1.0000 0.61840  0.22820  0.61840  Biso   1.000  H
  H38      1.0000 0.38160  0.77180  0.61840  Biso   1.000  H
  H39      1.0000 0.61840  0.77180  0.38160  Biso   1.000  H
  H40      1.0000 0.38160  0.22820  0.38160  Biso   1.000  H
  H41      1.0000 0.72820  0.38160  0.88160  Biso   1.000  H
  H42      1.0000 0.27180  0.38160  0.11840  Biso   1.000  H
  H43      1.0000 0.27180  0.61840  0.88160  Biso   1.000  H
  H44      1.0000 0.72820  0.61840  0.11840  Biso   1.000  H
  H45      1.0000 0.88160  0.11840  0.77180  Biso   1.000  H
  H46      1.0000 0.88160  0.88160  0.22820  Biso   1.000  H
  H47      1.0000 0.11840  0.11840  0.22820  Biso   1.000  H
  H48      1.0000 0.11840  0.88160  0.77180  Biso   1.000  H
  H49      1.0000 0.22820  0.61840  0.38160  Biso   1.000  H
  H50      1.0000 0.77180  0.38160  0.38160  Biso   1.000  H
  H51      1.0000 0.77180  0.61840  0.61840  Biso   1.000  H
  H52      1.0000 0.22820  0.38160  0.61840  Biso   1.000  H
  H53      1.0000 0.38160  0.72820  0.11840  Biso   1.000  H
  H54      1.0000 0.38160  0.27180  0.88160  Biso   1.000  H
  H55      1.0000 0.61840  0.27180  0.11840  Biso   1.000  H
  H56      1.0000 0.61840  0.72820  0.88160  Biso   1.000  H
  H57      1.0000 0.11840  0.88160  0.22820  Biso   1.000  H
  H58      1.0000 0.88160  0.88160  0.77180  Biso   1.000  H
  H59      1.0000 0.11840  0.11840  0.77180  Biso   1.000  H
  H60      1.0000 0.88160  0.11840  0.22820  Biso   1.000  H
  H61      1.0000 0.11840  0.72820  0.61840  Biso   1.000  H
  H62      1.0000 0.88160  0.27180  0.61840  Biso   1.000  H
  H63      1.0000 0.11840  0.27180  0.38160  Biso   1.000  H
  H64      1.0000 0.88160  0.72820  0.38160  Biso   1.000  H
  H65      1.0000 0.22820  0.88160  0.88160  Biso   1.000  H
  H66      1.0000 0.77180  0.88160  0.11840  Biso   1.000  H
  H67      1.0000 0.77180  0.11840  0.88160  Biso   1.000  H
  H68      1.0000 0.22820  0.11840  0.11840  Biso   1.000  H
  H69      1.0000 0.38160  0.61840  0.77180  Biso   1.000  H
  H70      1.0000 0.38160  0.38160  0.22820  Biso   1.000  H
  H71      1.0000 0.61840  0.61840  0.22820  Biso   1.000  H
  H72      1.0000 0.61840  0.38160  0.77180  Biso   1.000  H
  H73      1.0000 0.22820  0.11840  0.88160  Biso   1.000  H
  H74      1.0000 0.77180  0.88160  0.88160  Biso   1.000  H
  H75      1.0000 0.77180  0.11840  0.11840  Biso   1.000  H
  H76      1.0000 0.22820  0.88160  0.11840  Biso   1.000  H
  H77      1.0000 0.38160  0.22820  0.61840  Biso   1.000  H
  H78      1.0000 0.38160  0.77180  0.38160  Biso   1.000  H
  H79      1.0000 0.61840  0.77180  0.61840  Biso   1.000  H
  H80      1.0000 0.61840  0.22820  0.38160  Biso   1.000  H
  H81      1.0000 0.11840  0.38160  0.72820  Biso   1.000  H
  H82      1.0000 0.88160  0.38160  0.27180  Biso   1.000  H
  H83      1.0000 0.11840  0.61840  0.27180  Biso   1.000  H
  H84      1.0000 0.88160  0.61840  0.72820  Biso   1.000  H
  H85      1.0000 0.11840  0.22820  0.11840  Biso   1.000  H
  H86      1.0000 0.88160  0.77180  0.11840  Biso   1.000  H
  H87      1.0000 0.11840  0.77180  0.88160  Biso   1.000  H
  H88      1.0000 0.88160  0.22820  0.88160  Biso   1.000  H
  H89      1.0000 0.22820  0.38160  0.38160  Biso   1.000  H
  H90      1.0000 0.77180  0.38160  0.61840  Biso   1.000  H
  H91      1.0000 0.77180  0.61840  0.38160  Biso   1.000  H
  H92      1.0000 0.22820  0.61840  0.61840  Biso   1.000  H
  H93      1.0000 0.38160  0.11840  0.27180  Biso   1.000  H
  H94      1.0000 0.38160  0.88160  0.72820  Biso   1.000  H
  H95      1.0000 0.61840  0.11840  0.72820  Biso   1.000  H
  H96      1.0000 0.61840  0.88160  0.27180  Biso   1.000  H
  C97      1.0000 0.67800  0.61070  0.82200  Biso   1.000  C
  C98      1.0000 0.32200  0.38930  0.82200  Biso   1.000  C
  C99      1.0000 0.32200  0.61070  0.17800  Biso   1.000  C
  C100     1.0000 0.67800  0.38930  0.17800  Biso   1.000  C
  C101     1.0000 0.82200  0.67800  0.61070  Biso   1.000  C
  C102     1.0000 0.82200  0.32200  0.38930  Biso   1.000  C
  C103     1.0000 0.17800  0.32200  0.61070  Biso   1.000  C
  C104     1.0000 0.17800  0.67800  0.38930  Biso   1.000  C
  C105     1.0000 0.61070  0.82200  0.67800  Biso   1.000  C
  C106     1.0000 0.38930  0.82200  0.32200  Biso   1.000  C
  C107     1.0000 0.61070  0.17800  0.32200  Biso   1.000  C
  C108     1.0000 0.38930  0.17800  0.67800  Biso   1.000  C
  C109     1.0000 0.61070  0.67800  0.17800  Biso   1.000  C
  C110     1.0000 0.38930  0.32200  0.17800  Biso   1.000  C
  C111     1.0000 0.61070  0.32200  0.82200  Biso   1.000  C
  C112     1.0000 0.38930  0.67800  0.82200  Biso   1.000  C
  C113     1.0000 0.67800  0.82200  0.38930  Biso   1.000  C
  C114     1.0000 0.32200  0.82200  0.61070  Biso   1.000  C
  C115     1.0000 0.32200  0.17800  0.38930  Biso   1.000  C
  C116     1.0000 0.67800  0.17800  0.61070  Biso   1.000  C
  C117     1.0000 0.82200  0.61070  0.32200  Biso   1.000  C
  C118     1.0000 0.82200  0.38930  0.67800  Biso   1.000  C
  C119     1.0000 0.17800  0.61070  0.67800  Biso   1.000  C
  C120     1.0000 0.17800  0.38930  0.32200  Biso   1.000  C
  C121     1.0000 0.67800  0.11070  0.32200  Biso   1.000  C
  C122     1.0000 0.32200  0.88930  0.32200  Biso   1.000  C
  C123     1.0000 0.32200  0.11070  0.67800  Biso   1.000  C
  C124     1.0000 0.67800  0.88930  0.67800  Biso   1.000  C
  C125     1.0000 0.82200  0.17800  0.11070  Biso   1.000  C
  C126     1.0000 0.82200  0.82200  0.88930  Biso   1.000  C
  C127     1.0000 0.17800  0.82200  0.11070  Biso   1.000  C
  C128     1.0000 0.17800  0.17800  0.88930  Biso   1.000  C
  C129     1.0000 0.61070  0.32200  0.17800  Biso   1.000  C
  C130     1.0000 0.38930  0.32200  0.82200  Biso   1.000  C
  C131     1.0000 0.61070  0.67800  0.82200  Biso   1.000  C
  C132     1.0000 0.38930  0.67800  0.17800  Biso   1.000  C
  C133     1.0000 0.61070  0.17800  0.67800  Biso   1.000  C
  C134     1.0000 0.38930  0.82200  0.67800  Biso   1.000  C
  C135     1.0000 0.61070  0.82200  0.32200  Biso   1.000  C
  C136     1.0000 0.38930  0.17800  0.32200  Biso   1.000  C
  C137     1.0000 0.67800  0.32200  0.88930  Biso   1.000  C
  C138     1.0000 0.32200  0.32200  0.11070  Biso   1.000  C
  C139     1.0000 0.32200  0.67800  0.88930  Biso   1.000  C
  C140     1.0000 0.67800  0.67800  0.11070  Biso   1.000  C
  C141     1.0000 0.82200  0.11070  0.82200  Biso   1.000  C
  C142     1.0000 0.82200  0.88930  0.17800  Biso   1.000  C
  C143     1.0000 0.17800  0.11070  0.17800  Biso   1.000  C
  C144     1.0000 0.17800  0.88930  0.82200  Biso   1.000  C
  C145     1.0000 0.17800  0.61070  0.32200  Biso   1.000  C
  C146     1.0000 0.82200  0.38930  0.32200  Biso   1.000  C
  C147     1.0000 0.82200  0.61070  0.67800  Biso   1.000  C
  C148     1.0000 0.17800  0.38930  0.67800  Biso   1.000  C
  C149     1.0000 0.32200  0.67800  0.11070  Biso   1.000  C
  C150     1.0000 0.32200  0.32200  0.88930  Biso   1.000  C
  C151     1.0000 0.67800  0.32200  0.11070  Biso   1.000  C
  C152     1.0000 0.67800  0.67800  0.88930  Biso   1.000  C
  C153     1.0000 0.11070  0.82200  0.17800  Biso   1.000  C
  C154     1.0000 0.88930  0.82200  0.82200  Biso   1.000  C
  C155     1.0000 0.11070  0.17800  0.82200  Biso   1.000  C
  C156     1.0000 0.88930  0.17800  0.17800  Biso   1.000  C
  C157     1.0000 0.11070  0.67800  0.67800  Biso   1.000  C
  C158     1.0000 0.88930  0.32200  0.67800  Biso   1.000  C
  C159     1.0000 0.11070  0.32200  0.32200  Biso   1.000  C
  C160     1.0000 0.88930  0.67800  0.32200  Biso   1.000  C
  C161     1.0000 0.17800  0.82200  0.88930  Biso   1.000  C
  C162     1.0000 0.82200  0.82200  0.11070  Biso   1.000  C
  C163     1.0000 0.82200  0.17800  0.88930  Biso   1.000  C
  C164     1.0000 0.17800  0.17800  0.11070  Biso   1.000  C
  C165     1.0000 0.32200  0.61070  0.82200  Biso   1.000  C
  C166     1.0000 0.32200  0.38930  0.17800  Biso   1.000  C
  C167     1.0000 0.67800  0.61070  0.17800  Biso   1.000  C
  C168     1.0000 0.67800  0.38930  0.82200  Biso   1.000  C
  C169     1.0000 0.17800  0.11070  0.82200  Biso   1.000  C
  C170     1.0000 0.82200  0.88930  0.82200  Biso   1.000  C
  C171     1.0000 0.82200  0.11070  0.17800  Biso   1.000  C
  C172     1.0000 0.17800  0.88930  0.17800  Biso   1.000  C
  C173     1.0000 0.32200  0.17800  0.61070  Biso   1.000  C
  C174     1.0000 0.32200  0.82200  0.38930  Biso   1.000  C
  C175     1.0000 0.67800  0.82200  0.61070  Biso   1.000  C
  C176     1.0000 0.67800  0.17800  0.38930  Biso   1.000  C
  C177     1.0000 0.11070  0.32200  0.67800  Biso   1.000  C
  C178     1.0000 0.88930  0.32200  0.32200  Biso   1.000  C
  C179     1.0000 0.11070  0.67800  0.32200  Biso   1.000  C
  C180     1.0000 0.88930  0.67800  0.67800  Biso   1.000  C
  C181     1.0000 0.11070  0.17800  0.17800  Biso   1.000  C
  C182     1.0000 0.88930  0.82200  0.17800  Biso   1.000  C
  C183     1.0000 0.11070  0.82200  0.82200  Biso   1.000  C
  C184     1.0000 0.88930  0.17800  0.82200  Biso   1.000  C
  C185     1.0000 0.17800  0.32200  0.38930  Biso   1.000  C
  C186     1.0000 0.82200  0.32200  0.61070  Biso   1.000  C
  C187     1.0000 0.82200  0.67800  0.38930  Biso   1.000  C
  C188     1.0000 0.17800  0.67800  0.61070  Biso   1.000  C
  C189     1.0000 0.32200  0.11070  0.32200  Biso   1.000  C
  C190     1.0000 0.32200  0.88930  0.67800  Biso   1.000  C
  C191     1.0000 0.67800  0.11070  0.67800  Biso   1.000  C
  C192     1.0000 0.67800  0.88930  0.32200  Biso   1.000  C
  C193     1.0000 0.70340  0.56880  0.79660  Biso   1.000  C
  C194     1.0000 0.29660  0.43120  0.79660  Biso   1.000  C
  C195     1.0000 0.29660  0.56880  0.20340  Biso   1.000  C
  C196     1.0000 0.70340  0.43120  0.20340  Biso   1.000  C
  C197     1.0000 0.79660  0.70340  0.56880  Biso   1.000  C
  C198     1.0000 0.79660  0.29660  0.43120  Biso   1.000  C
  C199     1.0000 0.20340  0.29660  0.56880  Biso   1.000  C
  C200     1.0000 0.20340  0.70340  0.43120  Biso   1.000  C
  C201     1.0000 0.56880  0.79660  0.70340  Biso   1.000  C
  C202     1.0000 0.43120  0.79660  0.29660  Biso   1.000  C
  C203     1.0000 0.56880  0.20340  0.29660  Biso   1.000  C
  C204     1.0000 0.43120  0.20340  0.70340  Biso   1.000  C
  C205     1.0000 0.56880  0.70340  0.20340  Biso   1.000  C
  C206     1.0000 0.43120  0.29660  0.20340  Biso   1.000  C
  C207     1.0000 0.56880  0.29660  0.79660  Biso   1.000  C
  C208     1.0000 0.43120  0.70340  0.79660  Biso   1.000  C
  C209     1.0000 0.70340  0.79660  0.43120  Biso   1.000  C
  C210     1.0000 0.29660  0.79660  0.56880  Biso   1.000  C
  C211     1.0000 0.29660  0.20340  0.43120  Biso   1.000  C
  C212     1.0000 0.70340  0.20340  0.56880  Biso   1.000  C
  C213     1.0000 0.79660  0.56880  0.29660  Biso   1.000  C
  C214     1.0000 0.79660  0.43120  0.70340  Biso   1.000  C
  C215     1.0000 0.20340  0.56880  0.70340  Biso   1.000  C
  C216     1.0000 0.20340  0.43120  0.29660  Biso   1.000  C
  C217     1.0000 0.70340  0.06880  0.29660  Biso   1.000  C
  C218     1.0000 0.29660  0.93120  0.29660  Biso   1.000  C
  C219     1.0000 0.29660  0.06880  0.70340  Biso   1.000  C
  C220     1.0000 0.70340  0.93120  0.70340  Biso   1.000  C
  C221     1.0000 0.79660  0.20340  0.06880  Biso   1.000  C
  C222     1.0000 0.79660  0.79660  0.93120  Biso   1.000  C
  C223     1.0000 0.20340  0.79660  0.06880  Biso   1.000  C
  C224     1.0000 0.20340  0.20340  0.93120  Biso   1.000  C
  C225     1.0000 0.56880  0.29660  0.20340  Biso   1.000  C
  C226     1.0000 0.43120  0.29660  0.79660  Biso   1.000  C
  C227     1.0000 0.56880  0.70340  0.79660  Biso   1.000  C
  C228     1.0000 0.43120  0.70340  0.20340  Biso   1.000  C
  C229     1.0000 0.56880  0.20340  0.70340  Biso   1.000  C
  C230     1.0000 0.43120  0.79660  0.70340  Biso   1.000  C
  C231     1.0000 0.56880  0.79660  0.29660  Biso   1.000  C
  C232     1.0000 0.43120  0.20340  0.29660  Biso   1.000  C
  C233     1.0000 0.70340  0.29660  0.93120  Biso   1.000  C
  C234     1.0000 0.29660  0.29660  0.06880  Biso   1.000  C
  C235     1.0000 0.29660  0.70340  0.93120  Biso   1.000  C
  C236     1.0000 0.70340  0.70340  0.06880  Biso   1.000  C
  C237     1.0000 0.79660  0.06880  0.79660  Biso   1.000  C
  C238     1.0000 0.79660  0.93120  0.20340  Biso   1.000  C
  C239     1.0000 0.20340  0.06880  0.20340  Biso   1.000  C
  C240     1.0000 0.20340  0.93120  0.79660  Biso   1.000  C
  C241     1.0000 0.20340  0.56880  0.29660  Biso   1.000  C
  C242     1.0000 0.79660  0.43120  0.29660  Biso   1.000  C
  C243     1.0000 0.79660  0.56880  0.70340  Biso   1.000  C
  C244     1.0000 0.20340  0.43120  0.70340  Biso   1.000  C
  C245     1.0000 0.29660  0.70340  0.06880  Biso   1.000  C
  C246     1.0000 0.29660  0.29660  0.93120  Biso   1.000  C
  C247     1.0000 0.70340  0.29660  0.06880  Biso   1.000  C
  C248     1.0000 0.70340  0.70340  0.93120  Biso   1.000  C
  C249     1.0000 0.06880  0.79660  0.20340  Biso   1.000  C
  C250     1.0000 0.93120  0.79660  0.79660  Biso   1.000  C
  C251     1.0000 0.06880  0.20340  0.79660  Biso   1.000  C
  C252     1.0000 0.93120  0.20340  0.20340  Biso   1.000  C
  C253     1.0000 0.06880  0.70340  0.70340  Biso   1.000  C
  C254     1.0000 0.93120  0.29660  0.70340  Biso   1.000  C
  C255     1.0000 0.06880  0.29660  0.29660  Biso   1.000  C
  C256     1.0000 0.93120  0.70340  0.29660  Biso   1.000  C
  C257     1.0000 0.20340  0.79660  0.93120  Biso   1.000  C
  C258     1.0000 0.79660  0.79660  0.06880  Biso   1.000  C
  C259     1.0000 0.79660  0.20340  0.93120  Biso   1.000  C
  C260     1.0000 0.20340  0.20340  0.06880  Biso   1.000  C
  C261     1.0000 0.29660  0.56880  0.79660  Biso   1.000  C
  C262     1.0000 0.29660  0.43120  0.20340  Biso   1.000  C
  C263     1.0000 0.70340  0.56880  0.20340  Biso   1.000  C
  C264     1.0000 0.70340  0.43120  0.79660  Biso   1.000  C
  C265     1.0000 0.20340  0.06880  0.79660  Biso   1.000  C
  C266     1.0000 0.79660  0.93120  0.79660  Biso   1.000  C
  C267     1.0000 0.79660  0.06880  0.20340  Biso   1.000  C
  C268     1.0000 0.20340  0.93120  0.20340  Biso   1.000  C
  C269     1.0000 0.29660  0.20340  0.56880  Biso   1.000  C
  C270     1.0000 0.29660  0.79660  0.43120  Biso   1.000  C
  C271     1.0000 0.70340  0.79660  0.56880  Biso   1.000  C
  C272     1.0000 0.70340  0.20340  0.43120  Biso   1.000  C
  C273     1.0000 0.06880  0.29660  0.70340  Biso   1.000  C
  C274     1.0000 0.93120  0.29660  0.29660  Biso   1.000  C
  C275     1.0000 0.06880  0.70340  0.29660  Biso   1.000  C
  C276     1.0000 0.93120  0.70340  0.70340  Biso   1.000  C
  C277     1.0000 0.06880  0.20340  0.20340  Biso   1.000  C
  C278     1.0000 0.93120  0.79660  0.20340  Biso   1.000  C
  C279     1.0000 0.06880  0.79660  0.79660  Biso   1.000  C
  C280     1.0000 0.93120  0.20340  0.79660  Biso   1.000  C
  C281     1.0000 0.20340  0.29660  0.43120  Biso   1.000  C
  C282     1.0000 0.79660  0.29660  0.56880  Biso   1.000  C
  C283     1.0000 0.79660  0.70340  0.43120  Biso   1.000  C
  C284     1.0000 0.20340  0.70340  0.56880  Biso   1.000  C
  C285     1.0000 0.29660  0.06880  0.29660  Biso   1.000  C
  C286     1.0000 0.29660  0.93120  0.70340  Biso   1.000  C
  C287     1.0000 0.70340  0.06880  0.70340  Biso   1.000  C
  C288     1.0000 0.70340  0.93120  0.29660  Biso   1.000  C
  C289     1.0000 0.21600  0.21600  0.71600  Biso   1.000  C
  C290     1.0000 0.78400  0.78400  0.71600  Biso   1.000  C
  C291     1.0000 0.78400  0.21600  0.28400  Biso   1.000  C
  C292     1.0000 0.21600  0.78400  0.28400  Biso   1.000  C
  C293     1.0000 0.71600  0.21600  0.21600  Biso   1.000  C
  C294     1.0000 0.71600  0.78400  0.78400  Biso   1.000  C
  C295     1.0000 0.28400  0.78400  0.21600  Biso   1.000  C
  C296     1.0000 0.28400  0.21600  0.78400  Biso   1.000  C
  C297     1.0000 0.21600  0.71600  0.21600  Biso   1.000  C
  C298     1.0000 0.78400  0.71600  0.78400  Biso   1.000  C
  C299     1.0000 0.21600  0.28400  0.78400  Biso   1.000  C
  C300     1.0000 0.78400  0.28400  0.21600  Biso   1.000  C
  C301     1.0000 0.21600  0.21600  0.28400  Biso   1.000  C
  C302     1.0000 0.78400  0.78400  0.28400  Biso   1.000  C
  C303     1.0000 0.21600  0.78400  0.71600  Biso   1.000  C
  C304     1.0000 0.78400  0.21600  0.71600  Biso   1.000  C
  C305     1.0000 0.21600  0.71600  0.78400  Biso   1.000  C
  C306     1.0000 0.78400  0.71600  0.21600  Biso   1.000  C
  C307     1.0000 0.78400  0.28400  0.78400  Biso   1.000  C
  C308     1.0000 0.21600  0.28400  0.21600  Biso   1.000  C
  C309     1.0000 0.71600  0.21600  0.78400  Biso   1.000  C
  C310     1.0000 0.71600  0.78400  0.21600  Biso   1.000  C
  C311     1.0000 0.28400  0.21600  0.21600  Biso   1.000  C
  C312     1.0000 0.28400  0.78400  0.78400  Biso   1.000  C
  C313     1.0000 0.71600  0.71600  0.71600  Biso   1.000  C
  C314     1.0000 0.71600  0.28400  0.28400  Biso   1.000  C
  C315     1.0000 0.28400  0.28400  0.71600  Biso   1.000  C
  C316     1.0000 0.28400  0.71600  0.28400  Biso   1.000  C
  C317     1.0000 0.71600  0.71600  0.28400  Biso   1.000  C
  C318     1.0000 0.71600  0.28400  0.71600  Biso   1.000  C
  C319     1.0000 0.28400  0.71600  0.71600  Biso   1.000  C
  C320     1.0000 0.28400  0.28400  0.28400  Biso   1.000  C
  H97      1.0000 0.31880  0.27020  0.71640  Biso   1.000  H
  H98      1.0000 0.68120  0.72980  0.71640  Biso   1.000  H
  H99      1.0000 0.68120  0.27020  0.28360  Biso   1.000  H
  H100     1.0000 0.31880  0.72980  0.28360  Biso   1.000  H
  H101     1.0000 0.71640  0.31880  0.27020  Biso   1.000  H
  H102     1.0000 0.71640  0.68120  0.72980  Biso   1.000  H
  H103     1.0000 0.28360  0.68120  0.27020  Biso   1.000  H
  H104     1.0000 0.28360  0.31880  0.72980  Biso   1.000  H
  H105     1.0000 0.27020  0.71640  0.31880  Biso   1.000  H
  H106     1.0000 0.72980  0.71640  0.68120  Biso   1.000  H
  H107     1.0000 0.27020  0.28360  0.68120  Biso   1.000  H
  H108     1.0000 0.72980  0.28360  0.31880  Biso   1.000  H
  H109     1.0000 0.27020  0.31880  0.28360  Biso   1.000  H
  H110     1.0000 0.72980  0.68120  0.28360  Biso   1.000  H
  H111     1.0000 0.27020  0.68120  0.71640  Biso   1.000  H
  H112     1.0000 0.72980  0.31880  0.71640  Biso   1.000  H
  H113     1.0000 0.31880  0.71640  0.72980  Biso   1.000  H
  H114     1.0000 0.68120  0.71640  0.27020  Biso   1.000  H
  H115     1.0000 0.68120  0.28360  0.72980  Biso   1.000  H
  H116     1.0000 0.31880  0.28360  0.27020  Biso   1.000  H
  H117     1.0000 0.71640  0.27020  0.68120  Biso   1.000  H
  H118     1.0000 0.71640  0.72980  0.31880  Biso   1.000  H
  H119     1.0000 0.28360  0.27020  0.31880  Biso   1.000  H
  H120     1.0000 0.28360  0.72980  0.68120  Biso   1.000  H
  H121     1.0000 0.31880  0.77020  0.21640  Biso   1.000  H
  H122     1.0000 0.68120  0.22980  0.21640  Biso   1.000  H
  H123     1.0000 0.68120  0.77020  0.78360  Biso   1.000  H
  H124     1.0000 0.31880  0.22980  0.78360  Biso   1.000  H
  H125     1.0000 0.71640  0.81880  0.77020  Biso   1.000  H
  H126     1.0000 0.71640  0.18120  0.22980  Biso   1.000  H
  H127     1.0000 0.28360  0.18120  0.77020  Biso   1.000  H
  H128     1.0000 0.28360  0.81880  0.22980  Biso   1.000  H
  H129     1.0000 0.27020  0.21640  0.81880  Biso   1.000  H
  H130     1.0000 0.72980  0.21640  0.18120  Biso   1.000  H
  H131     1.0000 0.27020  0.78360  0.18120  Biso   1.000  H
  H132     1.0000 0.72980  0.78360  0.81880  Biso   1.000  H
  H133     1.0000 0.27020  0.81880  0.78360  Biso   1.000  H
  H134     1.0000 0.72980  0.18120  0.78360  Biso   1.000  H
  H135     1.0000 0.27020  0.18120  0.21640  Biso   1.000  H
  H136     1.0000 0.72980  0.81880  0.21640  Biso   1.000  H
  H137     1.0000 0.31880  0.21640  0.22980  Biso   1.000  H
  H138     1.0000 0.68120  0.21640  0.77020  Biso   1.000  H
  H139     1.0000 0.68120  0.78360  0.22980  Biso   1.000  H
  H140     1.0000 0.31880  0.78360  0.77020  Biso   1.000  H
  H141     1.0000 0.71640  0.77020  0.18120  Biso   1.000  H
  H142     1.0000 0.71640  0.22980  0.81880  Biso   1.000  H
  H143     1.0000 0.28360  0.77020  0.81880  Biso   1.000  H
  H144     1.0000 0.28360  0.22980  0.18120  Biso   1.000  H
  H145     1.0000 0.81880  0.27020  0.21640  Biso   1.000  H
  H146     1.0000 0.18120  0.72980  0.21640  Biso   1.000  H
  H147     1.0000 0.18120  0.27020  0.78360  Biso   1.000  H
  H148     1.0000 0.81880  0.72980  0.78360  Biso   1.000  H
  H149     1.0000 0.21640  0.31880  0.77020  Biso   1.000  H
  H150     1.0000 0.21640  0.68120  0.22980  Biso   1.000  H
  H151     1.0000 0.78360  0.68120  0.77020  Biso   1.000  H
  H152     1.0000 0.78360  0.31880  0.22980  Biso   1.000  H
  H153     1.0000 0.77020  0.71640  0.81880  Biso   1.000  H
  H154     1.0000 0.22980  0.71640  0.18120  Biso   1.000  H
  H155     1.0000 0.77020  0.28360  0.18120  Biso   1.000  H
  H156     1.0000 0.22980  0.28360  0.81880  Biso   1.000  H
  H157     1.0000 0.77020  0.31880  0.78360  Biso   1.000  H
  H158     1.0000 0.22980  0.68120  0.78360  Biso   1.000  H
  H159     1.0000 0.77020  0.68120  0.21640  Biso   1.000  H
  H160     1.0000 0.22980  0.31880  0.21640  Biso   1.000  H
  H161     1.0000 0.81880  0.71640  0.22980  Biso   1.000  H
  H162     1.0000 0.18120  0.71640  0.77020  Biso   1.000  H
  H163     1.0000 0.18120  0.28360  0.22980  Biso   1.000  H
  H164     1.0000 0.81880  0.28360  0.77020  Biso   1.000  H
  H165     1.0000 0.21640  0.27020  0.18120  Biso   1.000  H
  H166     1.0000 0.21640  0.72980  0.81880  Biso   1.000  H
  H167     1.0000 0.78360  0.27020  0.81880  Biso   1.000  H
  H168     1.0000 0.78360  0.72980  0.18120  Biso   1.000  H
  H169     1.0000 0.81880  0.77020  0.71640  Biso   1.000  H
  H170     1.0000 0.18120  0.22980  0.71640  Biso   1.000  H
  H171     1.0000 0.18120  0.77020  0.28360  Biso   1.000  H
  H172     1.0000 0.81880  0.22980  0.28360  Biso   1.000  H
  H173     1.0000 0.21640  0.81880  0.27020  Biso   1.000  H
  H174     1.0000 0.21640  0.18120  0.72980  Biso   1.000  H
  H175     1.0000 0.78360  0.18120  0.27020  Biso   1.000  H
  H176     1.0000 0.78360  0.81880  0.72980  Biso   1.000  H
  H177     1.0000 0.77020  0.21640  0.31880  Biso   1.000  H
  H178     1.0000 0.22980  0.21640  0.68120  Biso   1.000  H
  H179     1.0000 0.77020  0.78360  0.68120  Biso   1.000  H
  H180     1.0000 0.22980  0.78360  0.31880  Biso   1.000  H
  H181     1.0000 0.77020  0.81880  0.28360  Biso   1.000  H
  H182     1.0000 0.22980  0.18120  0.28360  Biso   1.000  H
  H183     1.0000 0.77020  0.18120  0.71640  Biso   1.000  H
  H184     1.0000 0.22980  0.81880  0.71640  Biso   1.000  H
  H185     1.0000 0.81880  0.21640  0.72980  Biso   1.000  H
  H186     1.0000 0.18120  0.21640  0.27020  Biso   1.000  H
  H187     1.0000 0.18120  0.78360  0.72980  Biso   1.000  H
  H188     1.0000 0.81880  0.78360  0.27020  Biso   1.000  H
  H189     1.0000 0.21640  0.77020  0.68120  Biso   1.000  H
  H190     1.0000 0.21640  0.22980  0.31880  Biso   1.000  H
  H191     1.0000 0.78360  0.77020  0.31880  Biso   1.000  H
  H192     1.0000 0.78360  0.22980  0.68120  Biso   1.000  H
  H193     1.0000 0.68120  0.72980  0.28360  Biso   1.000  H
  H194     1.0000 0.31880  0.27020  0.28360  Biso   1.000  H
  H195     1.0000 0.31880  0.72980  0.71640  Biso   1.000  H
  H196     1.0000 0.68120  0.27020  0.71640  Biso   1.000  H
  H197     1.0000 0.28360  0.68120  0.72980  Biso   1.000  H
  H198     1.0000 0.28360  0.31880  0.27020  Biso   1.000  H
  H199     1.0000 0.71640  0.31880  0.72980  Biso   1.000  H
  H200     1.0000 0.71640  0.68120  0.27020  Biso   1.000  H
  H201     1.0000 0.72980  0.28360  0.68120  Biso   1.000  H
  H202     1.0000 0.27020  0.28360  0.31880  Biso   1.000  H
  H203     1.0000 0.72980  0.71640  0.31880  Biso   1.000  H
  H204     1.0000 0.27020  0.71640  0.68120  Biso   1.000  H
  H205     1.0000 0.72980  0.68120  0.71640  Biso   1.000  H
  H206     1.0000 0.27020  0.31880  0.71640  Biso   1.000  H
  H207     1.0000 0.72980  0.31880  0.28360  Biso   1.000  H
  H208     1.0000 0.27020  0.68120  0.28360  Biso   1.000  H
  H209     1.0000 0.68120  0.28360  0.27020  Biso   1.000  H
  H210     1.0000 0.31880  0.28360  0.72980  Biso   1.000  H
  H211     1.0000 0.31880  0.71640  0.27020  Biso   1.000  H
  H212     1.0000 0.68120  0.71640  0.72980  Biso   1.000  H
  H213     1.0000 0.28360  0.72980  0.31880  Biso   1.000  H
  H214     1.0000 0.28360  0.27020  0.68120  Biso   1.000  H
  H215     1.0000 0.71640  0.72980  0.68120  Biso   1.000  H
  H216     1.0000 0.71640  0.27020  0.31880  Biso   1.000  H
  H217     1.0000 0.68120  0.22980  0.78360  Biso   1.000  H
  H218     1.0000 0.31880  0.77020  0.78360  Biso   1.000  H
  H219     1.0000 0.31880  0.22980  0.21640  Biso   1.000  H
  H220     1.0000 0.68120  0.77020  0.21640  Biso   1.000  H
  H221     1.0000 0.28360  0.18120  0.22980  Biso   1.000  H
  H222     1.0000 0.28360  0.81880  0.77020  Biso   1.000  H
  H223     1.0000 0.71640  0.81880  0.22980  Biso   1.000  H
  H224     1.0000 0.71640  0.18120  0.77020  Biso   1.000  H
  H225     1.0000 0.72980  0.78360  0.18120  Biso   1.000  H
  H226     1.0000 0.27020  0.78360  0.81880  Biso   1.000  H
  H227     1.0000 0.72980  0.21640  0.81880  Biso   1.000  H
  H228     1.0000 0.27020  0.21640  0.18120  Biso   1.000  H
  H229     1.0000 0.72980  0.18120  0.21640  Biso   1.000  H
  H230     1.0000 0.27020  0.81880  0.21640  Biso   1.000  H
  H231     1.0000 0.72980  0.81880  0.78360  Biso   1.000  H
  H232     1.0000 0.27020  0.18120  0.78360  Biso   1.000  H
  H233     1.0000 0.68120  0.78360  0.77020  Biso   1.000  H
  H234     1.0000 0.31880  0.78360  0.22980  Biso   1.000  H
  H235     1.0000 0.31880  0.21640  0.77020  Biso   1.000  H
  H236     1.0000 0.68120  0.21640  0.22980  Biso   1.000  H
  H237     1.0000 0.28360  0.22980  0.81880  Biso   1.000  H
  H238     1.0000 0.28360  0.77020  0.18120  Biso   1.000  H
  H239     1.0000 0.71640  0.22980  0.18120  Biso   1.000  H
  H240     1.0000 0.71640  0.77020  0.81880  Biso   1.000  H
  H241     1.0000 0.18120  0.72980  0.78360  Biso   1.000  H
  H242     1.0000 0.81880  0.27020  0.78360  Biso   1.000  H
  H243     1.0000 0.81880  0.72980  0.21640  Biso   1.000  H
  H244     1.0000 0.18120  0.27020  0.21640  Biso   1.000  H
  H245     1.0000 0.78360  0.68120  0.22980  Biso   1.000  H
  H246     1.0000 0.78360  0.31880  0.77020  Biso   1.000  H
  H247     1.0000 0.21640  0.31880  0.22980  Biso   1.000  H
  H248     1.0000 0.21640  0.68120  0.77020  Biso   1.000  H
  H249     1.0000 0.22980  0.28360  0.18120  Biso   1.000  H
  H250     1.0000 0.77020  0.28360  0.81880  Biso   1.000  H
  H251     1.0000 0.22980  0.71640  0.81880  Biso   1.000  H
  H252     1.0000 0.77020  0.71640  0.18120  Biso   1.000  H
  H253     1.0000 0.22980  0.68120  0.21640  Biso   1.000  H
  H254     1.0000 0.77020  0.31880  0.21640  Biso   1.000  H
  H255     1.0000 0.22980  0.31880  0.78360  Biso   1.000  H
  H256     1.0000 0.77020  0.68120  0.78360  Biso   1.000  H
  H257     1.0000 0.18120  0.28360  0.77020  Biso   1.000  H
  H258     1.0000 0.81880  0.28360  0.22980  Biso   1.000  H
  H259     1.0000 0.81880  0.71640  0.77020  Biso   1.000  H
  H260     1.0000 0.18120  0.71640  0.22980  Biso   1.000  H
  H261     1.0000 0.78360  0.72980  0.81880  Biso   1.000  H
  H262     1.0000 0.78360  0.27020  0.18120  Biso   1.000  H
  H263     1.0000 0.21640  0.72980  0.18120  Biso   1.000  H
  H264     1.0000 0.21640  0.27020  0.81880  Biso   1.000  H
  H265     1.0000 0.18120  0.22980  0.28360  Biso   1.000  H
  H266     1.0000 0.81880  0.77020  0.28360  Biso   1.000  H
  H267     1.0000 0.81880  0.22980  0.71640  Biso   1.000  H
  H268     1.0000 0.18120  0.77020  0.71640  Biso   1.000  H
  H269     1.0000 0.78360  0.18120  0.72980  Biso   1.000  H
  H270     1.0000 0.78360  0.81880  0.27020  Biso   1.000  H
  H271     1.0000 0.21640  0.81880  0.72980  Biso   1.000  H
  H272     1.0000 0.21640  0.18120  0.27020  Biso   1.000  H
  H273     1.0000 0.22980  0.78360  0.68120  Biso   1.000  H
  H274     1.0000 0.77020  0.78360  0.31880  Biso   1.000  H
  H275     1.0000 0.22980  0.21640  0.31880  Biso   1.000  H
  H276     1.0000 0.77020  0.21640  0.68120  Biso   1.000  H
  H277     1.0000 0.22980  0.18120  0.71640  Biso   1.000  H
  H278     1.0000 0.77020  0.81880  0.71640  Biso   1.000  H
  H279     1.0000 0.22980  0.81880  0.28360  Biso   1.000  H
  H280     1.0000 0.77020  0.18120  0.28360  Biso   1.000  H
  H281     1.0000 0.18120  0.78360  0.27020  Biso   1.000  H
  H282     1.0000 0.81880  0.78360  0.72980  Biso   1.000  H
  H283     1.0000 0.81880  0.21640  0.27020  Biso   1.000  H
  H284     1.0000 0.18120  0.21640  0.72980  Biso   1.000  H
  H285     1.0000 0.78360  0.22980  0.31880  Biso   1.000  H
  H286     1.0000 0.78360  0.77020  0.68120  Biso   1.000  H
  H287     1.0000 0.21640  0.22980  0.68120  Biso   1.000  H
  H288     1.0000 0.21640  0.77020  0.31880  Biso   1.000  H
  C321     1.0000 0.53500  0.46500  0.46500  Biso   1.000  C
  C322     1.0000 0.46500  0.53500  0.46500  Biso   1.000  C
  C323     1.0000 0.46500  0.46500  0.53500  Biso   1.000  C
  C324     1.0000 0.53500  0.53500  0.53500  Biso   1.000  C
  C325     1.0000 0.46500  0.53500  0.53500  Biso   1.000  C
  C326     1.0000 0.53500  0.46500  0.53500  Biso   1.000  C
  C327     1.0000 0.46500  0.46500  0.46500  Biso   1.000  C
  C328     1.0000 0.53500  0.53500  0.46500  Biso   1.000  C
  C329     1.0000 0.53500  0.96500  0.96500  Biso   1.000  C
  C330     1.0000 0.46500  0.03500  0.96500  Biso   1.000  C
  C331     1.0000 0.46500  0.96500  0.03500  Biso   1.000  C
  C332     1.0000 0.53500  0.03500  0.03500  Biso   1.000  C
  C333     1.0000 0.46500  0.03500  0.03500  Biso   1.000  C
  C334     1.0000 0.53500  0.96500  0.03500  Biso   1.000  C
  C335     1.0000 0.46500  0.96500  0.96500  Biso   1.000  C
  C336     1.0000 0.53500  0.03500  0.96500  Biso   1.000  C
  C337     1.0000 0.03500  0.46500  0.96500  Biso   1.000  C
  C338     1.0000 0.96500  0.53500  0.96500  Biso   1.000  C
  C339     1.0000 0.96500  0.46500  0.03500  Biso   1.000  C
  C340     1.0000 0.03500  0.53500  0.03500  Biso   1.000  C
  C341     1.0000 0.96500  0.53500  0.03500  Biso   1.000  C
  C342     1.0000 0.03500  0.46500  0.03500  Biso   1.000  C
  C343     1.0000 0.96500  0.46500  0.96500  Biso   1.000  C
  C344     1.0000 0.03500  0.53500  0.96500  Biso   1.000  C
  C345     1.0000 0.03500  0.96500  0.46500  Biso   1.000  C
  C346     1.0000 0.96500  0.03500  0.46500  Biso   1.000  C
  C347     1.0000 0.96500  0.96500  0.53500  Biso   1.000  C
  C348     1.0000 0.03500  0.03500  0.53500  Biso   1.000  C
  C349     1.0000 0.96500  0.03500  0.53500  Biso   1.000  C
  C350     1.0000 0.03500  0.96500  0.53500  Biso   1.000  C
  C351     1.0000 0.96500  0.96500  0.46500  Biso   1.000  C
  C352     1.0000 0.03500  0.03500  0.46500  Biso   1.000  C
  Cu1      1.0000 0.71477  0.50000  0.71477  Biso   1.000  Cu
  Cu2      1.0000 0.28523  0.50000  0.71477  Biso   1.000  Cu
  Cu3      1.0000 0.28523  0.50000  0.28523  Biso   1.000  Cu
  Cu4      1.0000 0.71477  0.50000  0.28523  Biso   1.000  Cu
  Cu5      1.0000 0.71477  0.71477  0.50000  Biso   1.000  Cu
  Cu6      1.0000 0.71477  0.28523  0.50000  Biso   1.000  Cu
  Cu7      1.0000 0.28523  0.28523  0.50000  Biso   1.000  Cu
  Cu8      1.0000 0.28523  0.71477  0.50000  Biso   1.000  Cu
  Cu9      1.0000 0.50000  0.71477  0.71477  Biso   1.000  Cu
  Cu10     1.0000 0.50000  0.71477  0.28523  Biso   1.000  Cu
  Cu11     1.0000 0.50000  0.28523  0.28523  Biso   1.000  Cu
  Cu12     1.0000 0.50000  0.28523  0.71477  Biso   1.000  Cu
  Cu13     1.0000 0.71477  0.00000  0.21477  Biso   1.000  Cu
  Cu14     1.0000 0.28523  0.00000  0.21477  Biso   1.000  Cu
  Cu15     1.0000 0.28523  0.00000  0.78523  Biso   1.000  Cu
  Cu16     1.0000 0.71477  0.00000  0.78523  Biso   1.000  Cu
  Cu17     1.0000 0.71477  0.21477  0.00000  Biso   1.000  Cu
  Cu18     1.0000 0.71477  0.78523  0.00000  Biso   1.000  Cu
  Cu19     1.0000 0.28523  0.78523  0.00000  Biso   1.000  Cu
  Cu20     1.0000 0.28523  0.21477  0.00000  Biso   1.000  Cu
  Cu21     1.0000 0.50000  0.21477  0.21477  Biso   1.000  Cu
  Cu22     1.0000 0.50000  0.21477  0.78523  Biso   1.000  Cu
  Cu23     1.0000 0.50000  0.78523  0.78523  Biso   1.000  Cu
  Cu24     1.0000 0.50000  0.78523  0.21477  Biso   1.000  Cu
  Cu25     1.0000 0.21477  0.50000  0.21477  Biso   1.000  Cu
  Cu26     1.0000 0.78523  0.50000  0.21477  Biso   1.000  Cu
  Cu27     1.0000 0.78523  0.50000  0.78523  Biso   1.000  Cu
  Cu28     1.0000 0.21477  0.50000  0.78523  Biso   1.000  Cu
  Cu29     1.0000 0.21477  0.71477  0.00000  Biso   1.000  Cu
  Cu30     1.0000 0.21477  0.28523  0.00000  Biso   1.000  Cu
  Cu31     1.0000 0.78523  0.28523  0.00000  Biso   1.000  Cu
  Cu32     1.0000 0.78523  0.71477  0.00000  Biso   1.000  Cu
  Cu33     1.0000 0.00000  0.71477  0.21477  Biso   1.000  Cu
  Cu34     1.0000 0.00000  0.71477  0.78523  Biso   1.000  Cu
  Cu35     1.0000 0.00000  0.28523  0.78523  Biso   1.000  Cu
  Cu36     1.0000 0.00000  0.28523  0.21477  Biso   1.000  Cu
  Cu37     1.0000 0.21477  0.00000  0.71477  Biso   1.000  Cu
  Cu38     1.0000 0.78523  0.00000  0.71477  Biso   1.000  Cu
  Cu39     1.0000 0.78523  0.00000  0.28523  Biso   1.000  Cu
  Cu40     1.0000 0.21477  0.00000  0.28523  Biso   1.000  Cu
  Cu41     1.0000 0.21477  0.21477  0.50000  Biso   1.000  Cu
  Cu42     1.0000 0.21477  0.78523  0.50000  Biso   1.000  Cu
  Cu43     1.0000 0.78523  0.78523  0.50000  Biso   1.000  Cu
  Cu44     1.0000 0.78523  0.21477  0.50000  Biso   1.000  Cu
  Cu45     1.0000 0.00000  0.21477  0.71477  Biso   1.000  Cu
  Cu46     1.0000 0.00000  0.21477  0.28523  Biso   1.000  Cu
  Cu47     1.0000 0.00000  0.78523  0.28523  Biso   1.000  Cu
  Cu48     1.0000 0.00000  0.78523  0.71477  Biso   1.000  Cu
  N1       1.0000 0.25000  0.25000  0.75000  Biso   1.000  N
  N2       1.0000 0.75000  0.75000  0.75000  Biso   1.000  N
  N3       1.0000 0.75000  0.25000  0.25000  Biso   1.000  N
  N4       1.0000 0.25000  0.75000  0.25000  Biso   1.000  N
  N5       1.0000 0.25000  0.25000  0.25000  Biso   1.000  N
  N6       1.0000 0.75000  0.75000  0.25000  Biso   1.000  N
  N7       1.0000 0.25000  0.75000  0.75000  Biso   1.000  N
  N8       1.0000 0.75000  0.25000  0.75000  Biso   1.000  N
  N9       1.0000 0.50000  0.50000  0.50000  Biso   1.000  N
  N10      1.0000 0.50000  0.00000  0.00000  Biso   1.000  N
  N11      1.0000 0.00000  0.50000  0.00000  Biso   1.000  N
  N12      1.0000 0.00000  0.00000  0.50000  Biso   1.000  N
  O1       1.0000 0.37920  0.05040  0.44960  Biso   1.000  O
  O2       1.0000 0.62080  0.94960  0.44960  Biso   1.000  O
  O3       1.0000 0.62080  0.05040  0.55040  Biso   1.000  O
  O4       1.0000 0.37920  0.94960  0.55040  Biso   1.000  O
  O5       1.0000 0.44960  0.37920  0.05040  Biso   1.000  O
  O6       1.0000 0.44960  0.62080  0.94960  Biso   1.000  O
  O7       1.0000 0.55040  0.62080  0.05040  Biso   1.000  O
  O8       1.0000 0.55040  0.37920  0.94960  Biso   1.000  O
  O9       1.0000 0.05040  0.44960  0.37920  Biso   1.000  O
  O10      1.0000 0.94960  0.44960  0.62080  Biso   1.000  O
  O11      1.0000 0.05040  0.55040  0.62080  Biso   1.000  O
  O12      1.0000 0.94960  0.55040  0.37920  Biso   1.000  O
  O13      1.0000 0.05040  0.37920  0.55040  Biso   1.000  O
  O14      1.0000 0.94960  0.62080  0.55040  Biso   1.000  O
  O15      1.0000 0.05040  0.62080  0.44960  Biso   1.000  O
  O16      1.0000 0.94960  0.37920  0.44960  Biso   1.000  O
  O17      1.0000 0.37920  0.44960  0.94960  Biso   1.000  O
  O18      1.0000 0.62080  0.44960  0.05040  Biso   1.000  O
  O19      1.0000 0.62080  0.55040  0.94960  Biso   1.000  O
  O20      1.0000 0.37920  0.55040  0.05040  Biso   1.000  O
  O21      1.0000 0.44960  0.05040  0.62080  Biso   1.000  O
  O22      1.0000 0.44960  0.94960  0.37920  Biso   1.000  O
  O23      1.0000 0.55040  0.05040  0.37920  Biso   1.000  O
  O24      1.0000 0.55040  0.94960  0.62080  Biso   1.000  O
  O25      1.0000 0.37920  0.55040  0.94960  Biso   1.000  O
  O26      1.0000 0.62080  0.44960  0.94960  Biso   1.000  O
  O27      1.0000 0.62080  0.55040  0.05040  Biso   1.000  O
  O28      1.0000 0.37920  0.44960  0.05040  Biso   1.000  O
  O29      1.0000 0.44960  0.87920  0.55040  Biso   1.000  O
  O30      1.0000 0.44960  0.12080  0.44960  Biso   1.000  O
  O31      1.0000 0.55040  0.12080  0.55040  Biso   1.000  O
  O32      1.0000 0.55040  0.87920  0.44960  Biso   1.000  O
  O33      1.0000 0.05040  0.94960  0.87920  Biso   1.000  O
  O34      1.0000 0.94960  0.94960  0.12080  Biso   1.000  O
  O35      1.0000 0.05040  0.05040  0.12080  Biso   1.000  O
  O36      1.0000 0.94960  0.05040  0.87920  Biso   1.000  O
  O37      1.0000 0.05040  0.87920  0.05040  Biso   1.000  O
  O38      1.0000 0.94960  0.12080  0.05040  Biso   1.000  O
  O39      1.0000 0.05040  0.12080  0.94960  Biso   1.000  O
  O40      1.0000 0.94960  0.87920  0.94960  Biso   1.000  O
  O41      1.0000 0.37920  0.94960  0.44960  Biso   1.000  O
  O42      1.0000 0.62080  0.94960  0.55040  Biso   1.000  O
  O43      1.0000 0.62080  0.05040  0.44960  Biso   1.000  O
  O44      1.0000 0.37920  0.05040  0.55040  Biso   1.000  O
  O45      1.0000 0.44960  0.55040  0.12080  Biso   1.000  O
  O46      1.0000 0.44960  0.44960  0.87920  Biso   1.000  O
  O47      1.0000 0.55040  0.55040  0.87920  Biso   1.000  O
  O48      1.0000 0.55040  0.44960  0.12080  Biso   1.000  O
  O49      1.0000 0.87920  0.05040  0.94960  Biso   1.000  O
  O50      1.0000 0.12080  0.94960  0.94960  Biso   1.000  O
  O51      1.0000 0.12080  0.05040  0.05040  Biso   1.000  O
  O52      1.0000 0.87920  0.94960  0.05040  Biso   1.000  O
  O53      1.0000 0.94960  0.37920  0.55040  Biso   1.000  O
  O54      1.0000 0.94960  0.62080  0.44960  Biso   1.000  O
  O55      1.0000 0.05040  0.62080  0.55040  Biso   1.000  O
  O56      1.0000 0.05040  0.37920  0.44960  Biso   1.000  O
  O57      1.0000 0.55040  0.44960  0.87920  Biso   1.000  O
  O58      1.0000 0.44960  0.44960  0.12080  Biso   1.000  O
  O59      1.0000 0.55040  0.55040  0.12080  Biso   1.000  O
  O60      1.0000 0.44960  0.55040  0.87920  Biso   1.000  O
  O61      1.0000 0.55040  0.37920  0.05040  Biso   1.000  O
  O62      1.0000 0.44960  0.62080  0.05040  Biso   1.000  O
  O63      1.0000 0.55040  0.62080  0.94960  Biso   1.000  O
  O64      1.0000 0.44960  0.37920  0.94960  Biso   1.000  O
  O65      1.0000 0.87920  0.44960  0.44960  Biso   1.000  O
  O66      1.0000 0.12080  0.44960  0.55040  Biso   1.000  O
  O67      1.0000 0.12080  0.55040  0.44960  Biso   1.000  O
  O68      1.0000 0.87920  0.55040  0.55040  Biso   1.000  O
  O69      1.0000 0.94960  0.05040  0.12080  Biso   1.000  O
  O70      1.0000 0.94960  0.94960  0.87920  Biso   1.000  O
  O71      1.0000 0.05040  0.05040  0.87920  Biso   1.000  O
  O72      1.0000 0.05040  0.94960  0.12080  Biso   1.000  O
  O73      1.0000 0.87920  0.55040  0.44960  Biso   1.000  O
  O74      1.0000 0.12080  0.44960  0.44960  Biso   1.000  O
  O75      1.0000 0.12080  0.55040  0.55040  Biso   1.000  O
  O76      1.0000 0.87920  0.44960  0.55040  Biso   1.000  O
  O77      1.0000 0.94960  0.87920  0.05040  Biso   1.000  O
  O78      1.0000 0.94960  0.12080  0.94960  Biso   1.000  O
  O79      1.0000 0.05040  0.12080  0.05040  Biso   1.000  O
  O80      1.0000 0.05040  0.87920  0.94960  Biso   1.000  O
  O81      1.0000 0.55040  0.94960  0.37920  Biso   1.000  O
  O82      1.0000 0.44960  0.94960  0.62080  Biso   1.000  O
  O83      1.0000 0.55040  0.05040  0.62080  Biso   1.000  O
  O84      1.0000 0.44960  0.05040  0.37920  Biso   1.000  O
  O85      1.0000 0.55040  0.87920  0.55040  Biso   1.000  O
  O86      1.0000 0.44960  0.12080  0.55040  Biso   1.000  O
  O87      1.0000 0.55040  0.12080  0.44960  Biso   1.000  O
  O88      1.0000 0.44960  0.87920  0.44960  Biso   1.000  O
  O89      1.0000 0.87920  0.94960  0.94960  Biso   1.000  O
  O90      1.0000 0.12080  0.94960  0.05040  Biso   1.000  O
  O91      1.0000 0.12080  0.05040  0.94960  Biso   1.000  O
  O92      1.0000 0.87920  0.05040  0.05040  Biso   1.000  O
  O93      1.0000 0.94960  0.55040  0.62080  Biso   1.000  O
  O94      1.0000 0.94960  0.44960  0.37920  Biso   1.000  O
  O95      1.0000 0.05040  0.55040  0.37920  Biso   1.000  O
  O96      1.0000 0.05040  0.44960  0.62080  Biso   1.000  O
  O97      1.0000 0.36020  0.00000  0.36020  Biso   1.000  O
  O98      1.0000 0.63980  0.00000  0.36020  Biso   1.000  O
  O99      1.0000 0.63980  0.00000  0.63980  Biso   1.000  O
  O100     1.0000 0.36020  0.00000  0.63980  Biso   1.000  O
  O101     1.0000 0.36020  0.36020  0.00000  Biso   1.000  O
  O102     1.0000 0.36020  0.63980  0.00000  Biso   1.000  O
  O103     1.0000 0.63980  0.63980  0.00000  Biso   1.000  O
  O104     1.0000 0.63980  0.36020  0.00000  Biso   1.000  O
  O105     1.0000 0.00000  0.36020  0.36020  Biso   1.000  O
  O106     1.0000 0.00000  0.36020  0.63980  Biso   1.000  O
  O107     1.0000 0.00000  0.63980  0.63980  Biso   1.000  O
  O108     1.0000 0.00000  0.63980  0.36020  Biso   1.000  O
  O109     1.0000 0.36020  0.50000  0.86020  Biso   1.000  O
  O110     1.0000 0.63980  0.50000  0.86020  Biso   1.000  O
  O111     1.0000 0.63980  0.50000  0.13980  Biso   1.000  O
  O112     1.0000 0.36020  0.50000  0.13980  Biso   1.000  O
  O113     1.0000 0.36020  0.86020  0.50000  Biso   1.000  O
  O114     1.0000 0.36020  0.13980  0.50000  Biso   1.000  O
  O115     1.0000 0.63980  0.13980  0.50000  Biso   1.000  O
  O116     1.0000 0.63980  0.86020  0.50000  Biso   1.000  O
  O117     1.0000 0.00000  0.86020  0.86020  Biso   1.000  O
  O118     1.0000 0.00000  0.86020  0.13980  Biso   1.000  O
  O119     1.0000 0.00000  0.13980  0.13980  Biso   1.000  O
  O120     1.0000 0.00000  0.13980  0.86020  Biso   1.000  O
  O121     1.0000 0.86020  0.00000  0.86020  Biso   1.000  O
  O122     1.0000 0.13980  0.00000  0.86020  Biso   1.000  O
  O123     1.0000 0.13980  0.00000  0.13980  Biso   1.000  O
  O124     1.0000 0.86020  0.00000  0.13980  Biso   1.000  O
  O125     1.0000 0.86020  0.36020  0.50000  Biso   1.000  O
  O126     1.0000 0.86020  0.63980  0.50000  Biso   1.000  O
  O127     1.0000 0.13980  0.63980  0.50000  Biso   1.000  O
  O128     1.0000 0.13980  0.36020  0.50000  Biso   1.000  O
  O129     1.0000 0.50000  0.36020  0.86020  Biso   1.000  O
  O130     1.0000 0.50000  0.36020  0.13980  Biso   1.000  O
  O131     1.0000 0.50000  0.63980  0.13980  Biso   1.000  O
  O132     1.0000 0.50000  0.63980  0.86020  Biso   1.000  O
  O133     1.0000 0.86020  0.50000  0.36020  Biso   1.000  O
  O134     1.0000 0.13980  0.50000  0.36020  Biso   1.000  O
  O135     1.0000 0.13980  0.50000  0.63980  Biso   1.000  O
  O136     1.0000 0.86020  0.50000  0.63980  Biso   1.000  O
  O137     1.0000 0.86020  0.86020  0.00000  Biso   1.000  O
  O138     1.0000 0.86020  0.13980  0.00000  Biso   1.000  O
  O139     1.0000 0.13980  0.13980  0.00000  Biso   1.000  O
  O140     1.0000 0.13980  0.86020  0.00000  Biso   1.000  O
  O141     1.0000 0.50000  0.86020  0.36020  Biso   1.000  O
  O142     1.0000 0.50000  0.86020  0.63980  Biso   1.000  O
  O143     1.0000 0.50000  0.13980  0.63980  Biso   1.000  O
  O144     1.0000 0.50000  0.13980  0.36020  Biso   1.000  O
  O145     1.0000 0.46730  0.96730  0.46730  Biso   1.000  O
  O146     1.0000 0.53270  0.03270  0.46730  Biso   1.000  O
  O147     1.0000 0.53270  0.96730  0.53270  Biso   1.000  O
  O148     1.0000 0.46730  0.03270  0.53270  Biso   1.000  O
  O149     1.0000 0.46730  0.46730  0.96730  Biso   1.000  O
  O150     1.0000 0.46730  0.53270  0.03270  Biso   1.000  O
  O151     1.0000 0.53270  0.53270  0.96730  Biso   1.000  O
  O152     1.0000 0.53270  0.46730  0.03270  Biso   1.000  O
  O153     1.0000 0.96730  0.46730  0.46730  Biso   1.000  O
  O154     1.0000 0.03270  0.46730  0.53270  Biso   1.000  O
  O155     1.0000 0.96730  0.53270  0.53270  Biso   1.000  O
  O156     1.0000 0.03270  0.53270  0.46730  Biso   1.000  O
  O157     1.0000 0.96730  0.46730  0.53270  Biso   1.000  O
  O158     1.0000 0.03270  0.53270  0.53270  Biso   1.000  O
  O159     1.0000 0.96730  0.53270  0.46730  Biso   1.000  O
  O160     1.0000 0.03270  0.46730  0.46730  Biso   1.000  O
  O161     1.0000 0.46730  0.46730  0.03270  Biso   1.000  O
  O162     1.0000 0.53270  0.46730  0.96730  Biso   1.000  O
  O163     1.0000 0.53270  0.53270  0.03270  Biso   1.000  O
  O164     1.0000 0.46730  0.53270  0.96730  Biso   1.000  O
  O165     1.0000 0.46730  0.96730  0.53270  Biso   1.000  O
  O166     1.0000 0.46730  0.03270  0.46730  Biso   1.000  O
  O167     1.0000 0.53270  0.96730  0.46730  Biso   1.000  O
  O168     1.0000 0.53270  0.03270  0.53270  Biso   1.000  O
  O169     1.0000 0.96730  0.96730  0.96730  Biso   1.000  O
  O170     1.0000 0.03270  0.96730  0.03270  Biso   1.000  O
  O171     1.0000 0.96730  0.03270  0.03270  Biso   1.000  O
  O172     1.0000 0.03270  0.03270  0.96730  Biso   1.000  O
  O173     1.0000 0.96730  0.96730  0.03270  Biso   1.000  O
  O174     1.0000 0.03270  0.03270  0.03270  Biso   1.000  O
  O175     1.0000 0.96730  0.03270  0.96730  Biso   1.000  O
  O176     1.0000 0.03270  0.96730  0.96730  Biso   1.000  O
  O177     1.0000 0.68240  0.55250  0.75620  Biso   1.000  O
  O178     1.0000 0.31760  0.44750  0.75620  Biso   1.000  O
  O179     1.0000 0.31760  0.55250  0.24380  Biso   1.000  O
  O180     1.0000 0.68240  0.44750  0.24380  Biso   1.000  O
  O181     1.0000 0.75620  0.68240  0.55250  Biso   1.000  O
  O182     1.0000 0.75620  0.31760  0.44750  Biso   1.000  O
  O183     1.0000 0.24380  0.31760  0.55250  Biso   1.000  O
  O184     1.0000 0.24380  0.68240  0.44750  Biso   1.000  O
  O185     1.0000 0.55250  0.75620  0.68240  Biso   1.000  O
  O186     1.0000 0.44750  0.75620  0.31760  Biso   1.000  O
  O187     1.0000 0.55250  0.24380  0.31760  Biso   1.000  O
  O188     1.0000 0.44750  0.24380  0.68240  Biso   1.000  O
  O189     1.0000 0.55250  0.68240  0.24380  Biso   1.000  O
  O190     1.0000 0.44750  0.31760  0.24380  Biso   1.000  O
  O191     1.0000 0.55250  0.31760  0.75620  Biso   1.000  O
  O192     1.0000 0.44750  0.68240  0.75620  Biso   1.000  O
  O193     1.0000 0.68240  0.75620  0.44750  Biso   1.000  O
  O194     1.0000 0.31760  0.75620  0.55250  Biso   1.000  O
  O195     1.0000 0.31760  0.24380  0.44750  Biso   1.000  O
  O196     1.0000 0.68240  0.24380  0.55250  Biso   1.000  O
  O197     1.0000 0.75620  0.55250  0.31760  Biso   1.000  O
  O198     1.0000 0.75620  0.44750  0.68240  Biso   1.000  O
  O199     1.0000 0.24380  0.55250  0.68240  Biso   1.000  O
  O200     1.0000 0.24380  0.44750  0.31760  Biso   1.000  O
  O201     1.0000 0.68240  0.05250  0.25620  Biso   1.000  O
  O202     1.0000 0.31760  0.94750  0.25620  Biso   1.000  O
  O203     1.0000 0.31760  0.05250  0.74380  Biso   1.000  O
  O204     1.0000 0.68240  0.94750  0.74380  Biso   1.000  O
  O205     1.0000 0.75620  0.18240  0.05250  Biso   1.000  O
  O206     1.0000 0.75620  0.81760  0.94750  Biso   1.000  O
  O207     1.0000 0.24380  0.81760  0.05250  Biso   1.000  O
  O208     1.0000 0.24380  0.18240  0.94750  Biso   1.000  O
  O209     1.0000 0.55250  0.25620  0.18240  Biso   1.000  O
  O210     1.0000 0.44750  0.25620  0.81760  Biso   1.000  O
  O211     1.0000 0.55250  0.74380  0.81760  Biso   1.000  O
  O212     1.0000 0.44750  0.74380  0.18240  Biso   1.000  O
  O213     1.0000 0.55250  0.18240  0.74380  Biso   1.000  O
  O214     1.0000 0.44750  0.81760  0.74380  Biso   1.000  O
  O215     1.0000 0.55250  0.81760  0.25620  Biso   1.000  O
  O216     1.0000 0.44750  0.18240  0.25620  Biso   1.000  O
  O217     1.0000 0.68240  0.25620  0.94750  Biso   1.000  O
  O218     1.0000 0.31760  0.25620  0.05250  Biso   1.000  O
  O219     1.0000 0.31760  0.74380  0.94750  Biso   1.000  O
  O220     1.0000 0.68240  0.74380  0.05250  Biso   1.000  O
  O221     1.0000 0.75620  0.05250  0.81760  Biso   1.000  O
  O222     1.0000 0.75620  0.94750  0.18240  Biso   1.000  O
  O223     1.0000 0.24380  0.05250  0.18240  Biso   1.000  O
  O224     1.0000 0.24380  0.94750  0.81760  Biso   1.000  O
  O225     1.0000 0.18240  0.55250  0.25620  Biso   1.000  O
  O226     1.0000 0.81760  0.44750  0.25620  Biso   1.000  O
  O227     1.0000 0.81760  0.55250  0.74380  Biso   1.000  O
  O228     1.0000 0.18240  0.44750  0.74380  Biso   1.000  O
  O229     1.0000 0.25620  0.68240  0.05250  Biso   1.000  O
  O230     1.0000 0.25620  0.31760  0.94750  Biso   1.000  O
  O231     1.0000 0.74380  0.31760  0.05250  Biso   1.000  O
  O232     1.0000 0.74380  0.68240  0.94750  Biso   1.000  O
  O233     1.0000 0.05250  0.75620  0.18240  Biso   1.000  O
  O234     1.0000 0.94750  0.75620  0.81760  Biso   1.000  O
  O235     1.0000 0.05250  0.24380  0.81760  Biso   1.000  O
  O236     1.0000 0.94750  0.24380  0.18240  Biso   1.000  O
  O237     1.0000 0.05250  0.68240  0.74380  Biso   1.000  O
  O238     1.0000 0.94750  0.31760  0.74380  Biso   1.000  O
  O239     1.0000 0.05250  0.31760  0.25620  Biso   1.000  O
  O240     1.0000 0.94750  0.68240  0.25620  Biso   1.000  O
  O241     1.0000 0.18240  0.75620  0.94750  Biso   1.000  O
  O242     1.0000 0.81760  0.75620  0.05250  Biso   1.000  O
  O243     1.0000 0.81760  0.24380  0.94750  Biso   1.000  O
  O244     1.0000 0.18240  0.24380  0.05250  Biso   1.000  O
  O245     1.0000 0.25620  0.55250  0.81760  Biso   1.000  O
  O246     1.0000 0.25620  0.44750  0.18240  Biso   1.000  O
  O247     1.0000 0.74380  0.55250  0.18240  Biso   1.000  O
  O248     1.0000 0.74380  0.44750  0.81760  Biso   1.000  O
  O249     1.0000 0.18240  0.05250  0.75620  Biso   1.000  O
  O250     1.0000 0.81760  0.94750  0.75620  Biso   1.000  O
  O251     1.0000 0.81760  0.05250  0.24380  Biso   1.000  O
  O252     1.0000 0.18240  0.94750  0.24380  Biso   1.000  O
  O253     1.0000 0.25620  0.18240  0.55250  Biso   1.000  O
  O254     1.0000 0.25620  0.81760  0.44750  Biso   1.000  O
  O255     1.0000 0.74380  0.81760  0.55250  Biso   1.000  O
  O256     1.0000 0.74380  0.18240  0.44750  Biso   1.000  O
  O257     1.0000 0.05250  0.25620  0.68240  Biso   1.000  O
  O258     1.0000 0.94750  0.25620  0.31760  Biso   1.000  O
  O259     1.0000 0.05250  0.74380  0.31760  Biso   1.000  O
  O260     1.0000 0.94750  0.74380  0.68240  Biso   1.000  O
  O261     1.0000 0.05250  0.18240  0.24380  Biso   1.000  O
  O262     1.0000 0.94750  0.81760  0.24380  Biso   1.000  O
  O263     1.0000 0.05250  0.81760  0.75620  Biso   1.000  O
  O264     1.0000 0.94750  0.18240  0.75620  Biso   1.000  O
  O265     1.0000 0.18240  0.25620  0.44750  Biso   1.000  O
  O266     1.0000 0.81760  0.25620  0.55250  Biso   1.000  O
  O267     1.0000 0.81760  0.74380  0.44750  Biso   1.000  O
  O268     1.0000 0.18240  0.74380  0.55250  Biso   1.000  O
  O269     1.0000 0.25620  0.05250  0.31760  Biso   1.000  O
  O270     1.0000 0.25620  0.94750  0.68240  Biso   1.000  O
  O271     1.0000 0.74380  0.05250  0.68240  Biso   1.000  O
  O272     1.0000 0.74380  0.94750  0.31760  Biso   1.000  O
  O273     1.0000 0.31760  0.44750  0.24380  Biso   1.000  O
  O274     1.0000 0.68240  0.55250  0.24380  Biso   1.000  O
  O275     1.0000 0.68240  0.44750  0.75620  Biso   1.000  O
  O276     1.0000 0.31760  0.55250  0.75620  Biso   1.000  O
  O277     1.0000 0.24380  0.31760  0.44750  Biso   1.000  O
  O278     1.0000 0.24380  0.68240  0.55250  Biso   1.000  O
  O279     1.0000 0.75620  0.68240  0.44750  Biso   1.000  O
  O280     1.0000 0.75620  0.31760  0.55250  Biso   1.000  O
  O281     1.0000 0.44750  0.24380  0.31760  Biso   1.000  O
  O282     1.0000 0.55250  0.24380  0.68240  Biso   1.000  O
  O283     1.0000 0.44750  0.75620  0.68240  Biso   1.000  O
  O284     1.0000 0.55250  0.75620  0.31760  Biso   1.000  O
  O285     1.0000 0.44750  0.31760  0.75620  Biso   1.000  O
  O286     1.0000 0.55250  0.68240  0.75620  Biso   1.000  O
  O287     1.0000 0.44750  0.68240  0.24380  Biso   1.000  O
  O288     1.0000 0.55250  0.31760  0.24380  Biso   1.000  O
  O289     1.0000 0.31760  0.24380  0.55250  Biso   1.000  O
  O290     1.0000 0.68240  0.24380  0.44750  Biso   1.000  O
  O291     1.0000 0.68240  0.75620  0.55250  Biso   1.000  O
  O292     1.0000 0.31760  0.75620  0.44750  Biso   1.000  O
  O293     1.0000 0.24380  0.44750  0.68240  Biso   1.000  O
  O294     1.0000 0.24380  0.55250  0.31760  Biso   1.000  O
  O295     1.0000 0.75620  0.44750  0.31760  Biso   1.000  O
  O296     1.0000 0.75620  0.55250  0.68240  Biso   1.000  O
  O297     1.0000 0.31760  0.94750  0.74380  Biso   1.000  O
  O298     1.0000 0.68240  0.05250  0.74380  Biso   1.000  O
  O299     1.0000 0.68240  0.94750  0.25620  Biso   1.000  O
  O300     1.0000 0.31760  0.05250  0.25620  Biso   1.000  O
  O301     1.0000 0.24380  0.81760  0.94750  Biso   1.000  O
  O302     1.0000 0.24380  0.18240  0.05250  Biso   1.000  O
  O303     1.0000 0.75620  0.18240  0.94750  Biso   1.000  O
  O304     1.0000 0.75620  0.81760  0.05250  Biso   1.000  O
  O305     1.0000 0.44750  0.74380  0.81760  Biso   1.000  O
  O306     1.0000 0.55250  0.74380  0.18240  Biso   1.000  O
  O307     1.0000 0.44750  0.25620  0.18240  Biso   1.000  O
  O308     1.0000 0.55250  0.25620  0.81760  Biso   1.000  O
  O309     1.0000 0.44750  0.81760  0.25620  Biso   1.000  O
  O310     1.0000 0.55250  0.18240  0.25620  Biso   1.000  O
  O311     1.0000 0.44750  0.18240  0.74380  Biso   1.000  O
  O312     1.0000 0.55250  0.81760  0.74380  Biso   1.000  O
  O313     1.0000 0.31760  0.74380  0.05250  Biso   1.000  O
  O314     1.0000 0.68240  0.74380  0.94750  Biso   1.000  O
  O315     1.0000 0.68240  0.25620  0.05250  Biso   1.000  O
  O316     1.0000 0.31760  0.25620  0.94750  Biso   1.000  O
  O317     1.0000 0.24380  0.94750  0.18240  Biso   1.000  O
  O318     1.0000 0.24380  0.05250  0.81760  Biso   1.000  O
  O319     1.0000 0.75620  0.94750  0.81760  Biso   1.000  O
  O320     1.0000 0.75620  0.05250  0.18240  Biso   1.000  O
  O321     1.0000 0.81760  0.44750  0.74380  Biso   1.000  O
  O322     1.0000 0.18240  0.55250  0.74380  Biso   1.000  O
  O323     1.0000 0.18240  0.44750  0.25620  Biso   1.000  O
  O324     1.0000 0.81760  0.55250  0.25620  Biso   1.000  O
  O325     1.0000 0.74380  0.31760  0.94750  Biso   1.000  O
  O326     1.0000 0.74380  0.68240  0.05250  Biso   1.000  O
  O327     1.0000 0.25620  0.68240  0.94750  Biso   1.000  O
  O328     1.0000 0.25620  0.31760  0.05250  Biso   1.000  O
  O329     1.0000 0.94750  0.24380  0.81760  Biso   1.000  O
  O330     1.0000 0.05250  0.24380  0.18240  Biso   1.000  O
  O331     1.0000 0.94750  0.75620  0.18240  Biso   1.000  O
  O332     1.0000 0.05250  0.75620  0.81760  Biso   1.000  O
  O333     1.0000 0.94750  0.31760  0.25620  Biso   1.000  O
  O334     1.0000 0.05250  0.68240  0.25620  Biso   1.000  O
  O335     1.0000 0.94750  0.68240  0.74380  Biso   1.000  O
  O336     1.0000 0.05250  0.31760  0.74380  Biso   1.000  O
  O337     1.0000 0.81760  0.24380  0.05250  Biso   1.000  O
  O338     1.0000 0.18240  0.24380  0.94750  Biso   1.000  O
  O339     1.0000 0.18240  0.75620  0.05250  Biso   1.000  O
  O340     1.0000 0.81760  0.75620  0.94750  Biso   1.000  O
  O341     1.0000 0.74380  0.44750  0.18240  Biso   1.000  O
  O342     1.0000 0.74380  0.55250  0.81760  Biso   1.000  O
  O343     1.0000 0.25620  0.44750  0.81760  Biso   1.000  O
  O344     1.0000 0.25620  0.55250  0.18240  Biso   1.000  O
  O345     1.0000 0.81760  0.94750  0.24380  Biso   1.000  O
  O346     1.0000 0.18240  0.05250  0.24380  Biso   1.000  O
  O347     1.0000 0.18240  0.94750  0.75620  Biso   1.000  O
  O348     1.0000 0.81760  0.05250  0.75620  Biso   1.000  O
  O349     1.0000 0.74380  0.81760  0.44750  Biso   1.000  O
  O350     1.0000 0.74380  0.18240  0.55250  Biso   1.000  O
  O351     1.0000 0.25620  0.18240  0.44750  Biso   1.000  O
  O352     1.0000 0.25620  0.81760  0.55250  Biso   1.000  O
  O353     1.0000 0.94750  0.74380  0.31760  Biso   1.000  O
  O354     1.0000 0.05250  0.74380  0.68240  Biso   1.000  O
  O355     1.0000 0.94750  0.25620  0.68240  Biso   1.000  O
  O356     1.0000 0.05250  0.25620  0.31760  Biso   1.000  O
  O357     1.0000 0.94750  0.81760  0.75620  Biso   1.000  O
  O358     1.0000 0.05250  0.18240  0.75620  Biso   1.000  O
  O359     1.0000 0.94750  0.18240  0.24380  Biso   1.000  O
  O360     1.0000 0.05250  0.81760  0.24380  Biso   1.000  O
  O361     1.0000 0.81760  0.74380  0.55250  Biso   1.000  O
  O362     1.0000 0.18240  0.74380  0.44750  Biso   1.000  O
  O363     1.0000 0.18240  0.25620  0.55250  Biso   1.000  O
  O364     1.0000 0.81760  0.25620  0.44750  Biso   1.000  O
  O365     1.0000 0.74380  0.94750  0.68240  Biso   1.000  O
  O366     1.0000 0.74380  0.05250  0.31760  Biso   1.000  O
  O367     1.0000 0.25620  0.94750  0.31760  Biso   1.000  O
  O368     1.0000 0.25620  0.05250  0.68240  Biso   1.000  O
  O369     1.0000 0.64440  0.50000  0.66830  Biso   1.000  O
  O370     1.0000 0.35560  0.50000  0.66830  Biso   1.000  O
  O371     1.0000 0.35560  0.50000  0.33170  Biso   1.000  O
  O372     1.0000 0.64440  0.50000  0.33170  Biso   1.000  O
  O373     1.0000 0.66830  0.64440  0.50000  Biso   1.000  O
  O374     1.0000 0.66830  0.35560  0.50000  Biso   1.000  O
  O375     1.0000 0.33170  0.35560  0.50000  Biso   1.000  O
  O376     1.0000 0.33170  0.64440  0.50000  Biso   1.000  O
  O377     1.0000 0.50000  0.66830  0.64440  Biso   1.000  O
  O378     1.0000 0.50000  0.66830  0.35560  Biso   1.000  O
  O379     1.0000 0.50000  0.33170  0.35560  Biso   1.000  O
  O380     1.0000 0.50000  0.33170  0.64440  Biso   1.000  O
  O381     1.0000 0.50000  0.64440  0.33170  Biso   1.000  O
  O382     1.0000 0.50000  0.35560  0.33170  Biso   1.000  O
  O383     1.0000 0.50000  0.35560  0.66830  Biso   1.000  O
  O384     1.0000 0.50000  0.64440  0.66830  Biso   1.000  O
  O385     1.0000 0.64440  0.66830  0.50000  Biso   1.000  O
  O386     1.0000 0.35560  0.66830  0.50000  Biso   1.000  O
  O387     1.0000 0.35560  0.33170  0.50000  Biso   1.000  O
  O388     1.0000 0.64440  0.33170  0.50000  Biso   1.000  O
  O389     1.0000 0.66830  0.50000  0.35560  Biso   1.000  O
  O390     1.0000 0.66830  0.50000  0.64440  Biso   1.000  O
  O391     1.0000 0.33170  0.50000  0.64440  Biso   1.000  O
  O392     1.0000 0.33170  0.50000  0.35560  Biso   1.000  O
  O393     1.0000 0.64440  0.00000  0.16830  Biso   1.000  O
  O394     1.0000 0.35560  0.00000  0.16830  Biso   1.000  O
  O395     1.0000 0.35560  0.00000  0.83170  Biso   1.000  O
  O396     1.0000 0.64440  0.00000  0.83170  Biso   1.000  O
  O397     1.0000 0.66830  0.14440  0.00000  Biso   1.000  O
  O398     1.0000 0.66830  0.85560  0.00000  Biso   1.000  O
  O399     1.0000 0.33170  0.85560  0.00000  Biso   1.000  O
  O400     1.0000 0.33170  0.14440  0.00000  Biso   1.000  O
  O401     1.0000 0.50000  0.16830  0.14440  Biso   1.000  O
  O402     1.0000 0.50000  0.16830  0.85560  Biso   1.000  O
  O403     1.0000 0.50000  0.83170  0.85560  Biso   1.000  O
  O404     1.0000 0.50000  0.83170  0.14440  Biso   1.000  O
  O405     1.0000 0.50000  0.14440  0.83170  Biso   1.000  O
  O406     1.0000 0.50000  0.85560  0.83170  Biso   1.000  O
  O407     1.0000 0.50000  0.85560  0.16830  Biso   1.000  O
  O408     1.0000 0.50000  0.14440  0.16830  Biso   1.000  O
  O409     1.0000 0.64440  0.16830  0.00000  Biso   1.000  O
  O410     1.0000 0.35560  0.16830  0.00000  Biso   1.000  O
  O411     1.0000 0.35560  0.83170  0.00000  Biso   1.000  O
  O412     1.0000 0.64440  0.83170  0.00000  Biso   1.000  O
  O413     1.0000 0.66830  0.00000  0.85560  Biso   1.000  O
  O414     1.0000 0.66830  0.00000  0.14440  Biso   1.000  O
  O415     1.0000 0.33170  0.00000  0.14440  Biso   1.000  O
  O416     1.0000 0.33170  0.00000  0.85560  Biso   1.000  O
  O417     1.0000 0.14440  0.50000  0.16830  Biso   1.000  O
  O418     1.0000 0.85560  0.50000  0.16830  Biso   1.000  O
  O419     1.0000 0.85560  0.50000  0.83170  Biso   1.000  O
  O420     1.0000 0.14440  0.50000  0.83170  Biso   1.000  O
  O421     1.0000 0.16830  0.64440  0.00000  Biso   1.000  O
  O422     1.0000 0.16830  0.35560  0.00000  Biso   1.000  O
  O423     1.0000 0.83170  0.35560  0.00000  Biso   1.000  O
  O424     1.0000 0.83170  0.64440  0.00000  Biso   1.000  O
  O425     1.0000 0.00000  0.66830  0.14440  Biso   1.000  O
  O426     1.0000 0.00000  0.66830  0.85560  Biso   1.000  O
  O427     1.0000 0.00000  0.33170  0.85560  Biso   1.000  O
  O428     1.0000 0.00000  0.33170  0.14440  Biso   1.000  O
  O429     1.0000 0.00000  0.64440  0.83170  Biso   1.000  O
  O430     1.0000 0.00000  0.35560  0.83170  Biso   1.000  O
  O431     1.0000 0.00000  0.35560  0.16830  Biso   1.000  O
  O432     1.0000 0.00000  0.64440  0.16830  Biso   1.000  O
  O433     1.0000 0.14440  0.66830  0.00000  Biso   1.000  O
  O434     1.0000 0.85560  0.66830  0.00000  Biso   1.000  O
  O435     1.0000 0.85560  0.33170  0.00000  Biso   1.000  O
  O436     1.0000 0.14440  0.33170  0.00000  Biso   1.000  O
  O437     1.0000 0.16830  0.50000  0.85560  Biso   1.000  O
  O438     1.0000 0.16830  0.50000  0.14440  Biso   1.000  O
  O439     1.0000 0.83170  0.50000  0.14440  Biso   1.000  O
  O440     1.0000 0.83170  0.50000  0.85560  Biso   1.000  O
  O441     1.0000 0.14440  0.00000  0.66830  Biso   1.000  O
  O442     1.0000 0.85560  0.00000  0.66830  Biso   1.000  O
  O443     1.0000 0.85560  0.00000  0.33170  Biso   1.000  O
  O444     1.0000 0.14440  0.00000  0.33170  Biso   1.000  O
  O445     1.0000 0.16830  0.14440  0.50000  Biso   1.000  O
  O446     1.0000 0.16830  0.85560  0.50000  Biso   1.000  O
  O447     1.0000 0.83170  0.85560  0.50000  Biso   1.000  O
  O448     1.0000 0.83170  0.14440  0.50000  Biso   1.000  O
  O449     1.0000 0.00000  0.16830  0.64440  Biso   1.000  O
  O450     1.0000 0.00000  0.16830  0.35560  Biso   1.000  O
  O451     1.0000 0.00000  0.83170  0.35560  Biso   1.000  O
  O452     1.0000 0.00000  0.83170  0.64440  Biso   1.000  O
  O453     1.0000 0.00000  0.14440  0.33170  Biso   1.000  O
  O454     1.0000 0.00000  0.85560  0.33170  Biso   1.000  O
  O455     1.0000 0.00000  0.85560  0.66830  Biso   1.000  O
  O456     1.0000 0.00000  0.14440  0.66830  Biso   1.000  O
  O457     1.0000 0.14440  0.16830  0.50000  Biso   1.000  O
  O458     1.0000 0.85560  0.16830  0.50000  Biso   1.000  O
  O459     1.0000 0.85560  0.83170  0.50000  Biso   1.000  O
  O460     1.0000 0.14440  0.83170  0.50000  Biso   1.000  O
  O461     1.0000 0.16830  0.00000  0.35560  Biso   1.000  O
  O462     1.0000 0.16830  0.00000  0.64440  Biso   1.000  O
  O463     1.0000 0.83170  0.00000  0.64440  Biso   1.000  O
  O464     1.0000 0.83170  0.00000  0.35560  Biso   1.000  O
  O465     1.0000 0.49180  0.24620  0.57350  Biso   1.000  O
  O466     1.0000 0.50820  0.75380  0.57350  Biso   1.000  O
  O467     1.0000 0.50820  0.24620  0.42650  Biso   1.000  O
  O468     1.0000 0.49180  0.75380  0.42650  Biso   1.000  O
  O469     1.0000 0.57350  0.49180  0.24620  Biso   1.000  O
  O470     1.0000 0.57350  0.50820  0.75380  Biso   1.000  O
  O471     1.0000 0.42650  0.50820  0.24620  Biso   1.000  O
  O472     1.0000 0.42650  0.49180  0.75380  Biso   1.000  O
  O473     1.0000 0.24620  0.57350  0.49180  Biso   1.000  O
  O474     1.0000 0.75380  0.57350  0.50820  Biso   1.000  O
  O475     1.0000 0.24620  0.42650  0.50820  Biso   1.000  O
  O476     1.0000 0.75380  0.42650  0.49180  Biso   1.000  O
  O477     1.0000 0.24620  0.49180  0.42650  Biso   1.000  O
  O478     1.0000 0.75380  0.50820  0.42650  Biso   1.000  O
  O479     1.0000 0.24620  0.50820  0.57350  Biso   1.000  O
  O480     1.0000 0.75380  0.49180  0.57350  Biso   1.000  O
  O481     1.0000 0.49180  0.57350  0.75380  Biso   1.000  O
  O482     1.0000 0.50820  0.57350  0.24620  Biso   1.000  O
  O483     1.0000 0.50820  0.42650  0.75380  Biso   1.000  O
  O484     1.0000 0.49180  0.42650  0.24620  Biso   1.000  O
  O485     1.0000 0.57350  0.24620  0.50820  Biso   1.000  O
  O486     1.0000 0.57350  0.75380  0.49180  Biso   1.000  O
  O487     1.0000 0.42650  0.24620  0.49180  Biso   1.000  O
  O488     1.0000 0.42650  0.75380  0.50820  Biso   1.000  O
  O489     1.0000 0.49180  0.74620  0.07350  Biso   1.000  O
  O490     1.0000 0.50820  0.25380  0.07350  Biso   1.000  O
  O491     1.0000 0.50820  0.74620  0.92650  Biso   1.000  O
  O492     1.0000 0.49180  0.25380  0.92650  Biso   1.000  O
  O493     1.0000 0.57350  0.99180  0.74620  Biso   1.000  O
  O494     1.0000 0.57350  0.00820  0.25380  Biso   1.000  O
  O495     1.0000 0.42650  0.00820  0.74620  Biso   1.000  O
  O496     1.0000 0.42650  0.99180  0.25380  Biso   1.000  O
  O497     1.0000 0.24620  0.07350  0.99180  Biso   1.000  O
  O498     1.0000 0.75380  0.07350  0.00820  Biso   1.000  O
  O499     1.0000 0.24620  0.92650  0.00820  Biso   1.000  O
  O500     1.0000 0.75380  0.92650  0.99180  Biso   1.000  O
  O501     1.0000 0.24620  0.99180  0.92650  Biso   1.000  O
  O502     1.0000 0.75380  0.00820  0.92650  Biso   1.000  O
  O503     1.0000 0.24620  0.00820  0.07350  Biso   1.000  O
  O504     1.0000 0.75380  0.99180  0.07350  Biso   1.000  O
  O505     1.0000 0.49180  0.07350  0.25380  Biso   1.000  O
  O506     1.0000 0.50820  0.07350  0.74620  Biso   1.000  O
  O507     1.0000 0.50820  0.92650  0.25380  Biso   1.000  O
  O508     1.0000 0.49180  0.92650  0.74620  Biso   1.000  O
  O509     1.0000 0.57350  0.74620  0.00820  Biso   1.000  O
  O510     1.0000 0.57350  0.25380  0.99180  Biso   1.000  O
  O511     1.0000 0.42650  0.74620  0.99180  Biso   1.000  O
  O512     1.0000 0.42650  0.25380  0.00820  Biso   1.000  O
  O513     1.0000 0.99180  0.24620  0.07350  Biso   1.000  O
  O514     1.0000 0.00820  0.75380  0.07350  Biso   1.000  O
  O515     1.0000 0.00820  0.24620  0.92650  Biso   1.000  O
  O516     1.0000 0.99180  0.75380  0.92650  Biso   1.000  O
  O517     1.0000 0.07350  0.49180  0.74620  Biso   1.000  O
  O518     1.0000 0.07350  0.50820  0.25380  Biso   1.000  O
  O519     1.0000 0.92650  0.50820  0.74620  Biso   1.000  O
  O520     1.0000 0.92650  0.49180  0.25380  Biso   1.000  O
  O521     1.0000 0.74620  0.57350  0.99180  Biso   1.000  O
  O522     1.0000 0.25380  0.57350  0.00820  Biso   1.000  O
  O523     1.0000 0.74620  0.42650  0.00820  Biso   1.000  O
  O524     1.0000 0.25380  0.42650  0.99180  Biso   1.000  O
  O525     1.0000 0.74620  0.49180  0.92650  Biso   1.000  O
  O526     1.0000 0.25380  0.50820  0.92650  Biso   1.000  O
  O527     1.0000 0.74620  0.50820  0.07350  Biso   1.000  O
  O528     1.0000 0.25380  0.49180  0.07350  Biso   1.000  O
  O529     1.0000 0.99180  0.57350  0.25380  Biso   1.000  O
  O530     1.0000 0.00820  0.57350  0.74620  Biso   1.000  O
  O531     1.0000 0.00820  0.42650  0.25380  Biso   1.000  O
  O532     1.0000 0.99180  0.42650  0.74620  Biso   1.000  O
  O533     1.0000 0.07350  0.24620  0.00820  Biso   1.000  O
  O534     1.0000 0.07350  0.75380  0.99180  Biso   1.000  O
  O535     1.0000 0.92650  0.24620  0.99180  Biso   1.000  O
  O536     1.0000 0.92650  0.75380  0.00820  Biso   1.000  O
  O537     1.0000 0.99180  0.74620  0.57350  Biso   1.000  O
  O538     1.0000 0.00820  0.25380  0.57350  Biso   1.000  O
  O539     1.0000 0.00820  0.74620  0.42650  Biso   1.000  O
  O540     1.0000 0.99180  0.25380  0.42650  Biso   1.000  O
  O541     1.0000 0.07350  0.99180  0.24620  Biso   1.000  O
  O542     1.0000 0.07350  0.00820  0.75380  Biso   1.000  O
  O543     1.0000 0.92650  0.00820  0.24620  Biso   1.000  O
  O544     1.0000 0.92650  0.99180  0.75380  Biso   1.000  O
  O545     1.0000 0.74620  0.07350  0.49180  Biso   1.000  O
  O546     1.0000 0.25380  0.07350  0.50820  Biso   1.000  O
  O547     1.0000 0.74620  0.92650  0.50820  Biso   1.000  O
  O548     1.0000 0.25380  0.92650  0.49180  Biso   1.000  O
  O549     1.0000 0.74620  0.99180  0.42650  Biso   1.000  O
  O550     1.0000 0.25380  0.00820  0.42650  Biso   1.000  O
  O551     1.0000 0.74620  0.00820  0.57350  Biso   1.000  O
  O552     1.0000 0.25380  0.99180  0.57350  Biso   1.000  O
  O553     1.0000 0.99180  0.07350  0.75380  Biso   1.000  O
  O554     1.0000 0.00820  0.07350  0.24620  Biso   1.000  O
  O555     1.0000 0.00820  0.92650  0.75380  Biso   1.000  O
  O556     1.0000 0.99180  0.92650  0.24620  Biso   1.000  O
  O557     1.0000 0.07350  0.74620  0.50820  Biso   1.000  O
  O558     1.0000 0.07350  0.25380  0.49180  Biso   1.000  O
  O559     1.0000 0.92650  0.74620  0.49180  Biso   1.000  O
  O560     1.0000 0.92650  0.25380  0.50820  Biso   1.000  O
  O561     1.0000 0.50820  0.75380  0.42650  Biso   1.000  O
  O562     1.0000 0.49180  0.24620  0.42650  Biso   1.000  O
  O563     1.0000 0.49180  0.75380  0.57350  Biso   1.000  O
  O564     1.0000 0.50820  0.24620  0.57350  Biso   1.000  O
  O565     1.0000 0.42650  0.50820  0.75380  Biso   1.000  O
  O566     1.0000 0.42650  0.49180  0.24620  Biso   1.000  O
  O567     1.0000 0.57350  0.49180  0.75380  Biso   1.000  O
  O568     1.0000 0.57350  0.50820  0.24620  Biso   1.000  O
  O569     1.0000 0.75380  0.42650  0.50820  Biso   1.000  O
  O570     1.0000 0.24620  0.42650  0.49180  Biso   1.000  O
  O571     1.0000 0.75380  0.57350  0.49180  Biso   1.000  O
  O572     1.0000 0.24620  0.57350  0.50820  Biso   1.000  O
  O573     1.0000 0.75380  0.50820  0.57350  Biso   1.000  O
  O574     1.0000 0.24620  0.49180  0.57350  Biso   1.000  O
  O575     1.0000 0.75380  0.49180  0.42650  Biso   1.000  O
  O576     1.0000 0.24620  0.50820  0.42650  Biso   1.000  O
  O577     1.0000 0.50820  0.42650  0.24620  Biso   1.000  O
  O578     1.0000 0.49180  0.42650  0.75380  Biso   1.000  O
  O579     1.0000 0.49180  0.57350  0.24620  Biso   1.000  O
  O580     1.0000 0.50820  0.57350  0.75380  Biso   1.000  O
  O581     1.0000 0.42650  0.75380  0.49180  Biso   1.000  O
  O582     1.0000 0.42650  0.24620  0.50820  Biso   1.000  O
  O583     1.0000 0.57350  0.75380  0.50820  Biso   1.000  O
  O584     1.0000 0.57350  0.24620  0.49180  Biso   1.000  O
  O585     1.0000 0.50820  0.25380  0.92650  Biso   1.000  O
  O586     1.0000 0.49180  0.74620  0.92650  Biso   1.000  O
  O587     1.0000 0.49180  0.25380  0.07350  Biso   1.000  O
  O588     1.0000 0.50820  0.74620  0.07350  Biso   1.000  O
  O589     1.0000 0.42650  0.00820  0.25380  Biso   1.000  O
  O590     1.0000 0.42650  0.99180  0.74620  Biso   1.000  O
  O591     1.0000 0.57350  0.99180  0.25380  Biso   1.000  O
  O592     1.0000 0.57350  0.00820  0.74620  Biso   1.000  O
  O593     1.0000 0.75380  0.92650  0.00820  Biso   1.000  O
  O594     1.0000 0.24620  0.92650  0.99180  Biso   1.000  O
  O595     1.0000 0.75380  0.07350  0.99180  Biso   1.000  O
  O596     1.0000 0.24620  0.07350  0.00820  Biso   1.000  O
  O597     1.0000 0.75380  0.00820  0.07350  Biso   1.000  O
  O598     1.0000 0.24620  0.99180  0.07350  Biso   1.000  O
  O599     1.0000 0.75380  0.99180  0.92650  Biso   1.000  O
  O600     1.0000 0.24620  0.00820  0.92650  Biso   1.000  O
  O601     1.0000 0.50820  0.92650  0.74620  Biso   1.000  O
  O602     1.0000 0.49180  0.92650  0.25380  Biso   1.000  O
  O603     1.0000 0.49180  0.07350  0.74620  Biso   1.000  O
  O604     1.0000 0.50820  0.07350  0.25380  Biso   1.000  O
  O605     1.0000 0.42650  0.25380  0.99180  Biso   1.000  O
  O606     1.0000 0.42650  0.74620  0.00820  Biso   1.000  O
  O607     1.0000 0.57350  0.25380  0.00820  Biso   1.000  O
  O608     1.0000 0.57350  0.74620  0.99180  Biso   1.000  O
  O609     1.0000 0.00820  0.75380  0.92650  Biso   1.000  O
  O610     1.0000 0.99180  0.24620  0.92650  Biso   1.000  O
  O611     1.0000 0.99180  0.75380  0.07350  Biso   1.000  O
  O612     1.0000 0.00820  0.24620  0.07350  Biso   1.000  O
  O613     1.0000 0.92650  0.50820  0.25380  Biso   1.000  O
  O614     1.0000 0.92650  0.49180  0.74620  Biso   1.000  O
  O615     1.0000 0.07350  0.49180  0.25380  Biso   1.000  O
  O616     1.0000 0.07350  0.50820  0.74620  Biso   1.000  O
  O617     1.0000 0.25380  0.42650  0.00820  Biso   1.000  O
  O618     1.0000 0.74620  0.42650  0.99180  Biso   1.000  O
  O619     1.0000 0.25380  0.57350  0.99180  Biso   1.000  O
  O620     1.0000 0.74620  0.57350  0.00820  Biso   1.000  O
  O621     1.0000 0.25380  0.50820  0.07350  Biso   1.000  O
  O622     1.0000 0.74620  0.49180  0.07350  Biso   1.000  O
  O623     1.0000 0.25380  0.49180  0.92650  Biso   1.000  O
  O624     1.0000 0.74620  0.50820  0.92650  Biso   1.000  O
  O625     1.0000 0.00820  0.42650  0.74620  Biso   1.000  O
  O626     1.0000 0.99180  0.42650  0.25380  Biso   1.000  O
  O627     1.0000 0.99180  0.57350  0.74620  Biso   1.000  O
  O628     1.0000 0.00820  0.57350  0.25380  Biso   1.000  O
  O629     1.0000 0.92650  0.75380  0.99180  Biso   1.000  O
  O630     1.0000 0.92650  0.24620  0.00820  Biso   1.000  O
  O631     1.0000 0.07350  0.75380  0.00820  Biso   1.000  O
  O632     1.0000 0.07350  0.24620  0.99180  Biso   1.000  O
  O633     1.0000 0.00820  0.25380  0.42650  Biso   1.000  O
  O634     1.0000 0.99180  0.74620  0.42650  Biso   1.000  O
  O635     1.0000 0.99180  0.25380  0.57350  Biso   1.000  O
  O636     1.0000 0.00820  0.74620  0.57350  Biso   1.000  O
  O637     1.0000 0.92650  0.00820  0.75380  Biso   1.000  O
  O638     1.0000 0.92650  0.99180  0.24620  Biso   1.000  O
  O639     1.0000 0.07350  0.99180  0.75380  Biso   1.000  O
  O640     1.0000 0.07350  0.00820  0.24620  Biso   1.000  O
  O641     1.0000 0.25380  0.92650  0.50820  Biso   1.000  O
  O642     1.0000 0.74620  0.92650  0.49180  Biso   1.000  O
  O643     1.0000 0.25380  0.07350  0.49180  Biso   1.000  O
  O644     1.0000 0.74620  0.07350  0.50820  Biso   1.000  O
  O645     1.0000 0.25380  0.00820  0.57350  Biso   1.000  O
  O646     1.0000 0.74620  0.99180  0.57350  Biso   1.000  O
  O647     1.0000 0.25380  0.99180  0.42650  Biso   1.000  O
  O648     1.0000 0.74620  0.00820  0.42650  Biso   1.000  O
  O649     1.0000 0.00820  0.92650  0.24620  Biso   1.000  O
  O650     1.0000 0.99180  0.92650  0.75380  Biso   1.000  O
  O651     1.0000 0.99180  0.07350  0.24620  Biso   1.000  O
  O652     1.0000 0.00820  0.07350  0.75380  Biso   1.000  O
  O653     1.0000 0.92650  0.25380  0.49180  Biso   1.000  O
  O654     1.0000 0.92650  0.74620  0.50820  Biso   1.000  O
  O655     1.0000 0.07350  0.25380  0.50820  Biso   1.000  O
  O656     1.0000 0.07350  0.74620  0.49180  Biso   1.000  O
  O657     1.0000 0.50000  0.36300  0.50000  Biso   1.000  O
  O658     1.0000 0.50000  0.63700  0.50000  Biso   1.000  O
  O659     1.0000 0.50000  0.50000  0.36300  Biso   1.000  O
  O660     1.0000 0.50000  0.50000  0.63700  Biso   1.000  O
  O661     1.0000 0.36300  0.50000  0.50000  Biso   1.000  O
  O662     1.0000 0.63700  0.50000  0.50000  Biso   1.000  O
  O663     1.0000 0.50000  0.86300  0.00000  Biso   1.000  O
  O664     1.0000 0.50000  0.13700  0.00000  Biso   1.000  O
  O665     1.0000 0.50000  0.00000  0.86300  Biso   1.000  O
  O666     1.0000 0.50000  0.00000  0.13700  Biso   1.000  O
  O667     1.0000 0.36300  0.00000  0.00000  Biso   1.000  O
  O668     1.0000 0.63700  0.00000  0.00000  Biso   1.000  O
  O669     1.0000 0.00000  0.36300  0.00000  Biso   1.000  O
  O670     1.0000 0.00000  0.63700  0.00000  Biso   1.000  O
  O671     1.0000 0.00000  0.50000  0.86300  Biso   1.000  O
  O672     1.0000 0.00000  0.50000  0.13700  Biso   1.000  O
  O673     1.0000 0.86300  0.50000  0.00000  Biso   1.000  O
  O674     1.0000 0.13700  0.50000  0.00000  Biso   1.000  O
  O675     1.0000 0.00000  0.86300  0.50000  Biso   1.000  O
  O676     1.0000 0.00000  0.13700  0.50000  Biso   1.000  O
  O677     1.0000 0.00000  0.00000  0.36300  Biso   1.000  O
  O678     1.0000 0.00000  0.00000  0.63700  Biso   1.000  O
  O679     1.0000 0.86300  0.00000  0.50000  Biso   1.000  O
  O680     1.0000 0.13700  0.00000  0.50000  Biso   1.000  O
  O681     1.0000 0.50000  0.32600  0.50000  Biso   1.000  O
  O682     1.0000 0.50000  0.67400  0.50000  Biso   1.000  O
  O683     1.0000 0.50000  0.50000  0.32600  Biso   1.000  O
  O684     1.0000 0.50000  0.50000  0.67400  Biso   1.000  O
  O685     1.0000 0.32600  0.50000  0.50000  Biso   1.000  O
  O686     1.0000 0.67400  0.50000  0.50000  Biso   1.000  O
  O687     1.0000 0.50000  0.82600  0.00000  Biso   1.000  O
  O688     1.0000 0.50000  0.17400  0.00000  Biso   1.000  O
  O689     1.0000 0.50000  0.00000  0.82600  Biso   1.000  O
  O690     1.0000 0.50000  0.00000  0.17400  Biso   1.000  O
  O691     1.0000 0.32600  0.00000  0.00000  Biso   1.000  O
  O692     1.0000 0.67400  0.00000  0.00000  Biso   1.000  O
  O693     1.0000 0.00000  0.32600  0.00000  Biso   1.000  O
  O694     1.0000 0.00000  0.67400  0.00000  Biso   1.000  O
  O695     1.0000 0.00000  0.50000  0.82600  Biso   1.000  O
  O696     1.0000 0.00000  0.50000  0.17400  Biso   1.000  O
  O697     1.0000 0.82600  0.50000  0.00000  Biso   1.000  O
  O698     1.0000 0.17400  0.50000  0.00000  Biso   1.000  O
  O699     1.0000 0.00000  0.82600  0.50000  Biso   1.000  O
  O700     1.0000 0.00000  0.17400  0.50000  Biso   1.000  O
  O701     1.0000 0.00000  0.00000  0.32600  Biso   1.000  O
  O702     1.0000 0.00000  0.00000  0.67400  Biso   1.000  O
  O703     1.0000 0.82600  0.00000  0.50000  Biso   1.000  O
  O704     1.0000 0.17400  0.00000  0.50000  Biso   1.000  O
  O705     1.0000 0.50000  0.19100  0.50000  Biso   1.000  O
  O706     1.0000 0.50000  0.80900  0.50000  Biso   1.000  O
  O707     1.0000 0.50000  0.50000  0.19100  Biso   1.000  O
  O708     1.0000 0.50000  0.50000  0.80900  Biso   1.000  O
  O709     1.0000 0.19100  0.50000  0.50000  Biso   1.000  O
  O710     1.0000 0.80900  0.50000  0.50000  Biso   1.000  O
  O711     1.0000 0.50000  0.69100  0.00000  Biso   1.000  O
  O712     1.0000 0.50000  0.30900  0.00000  Biso   1.000  O
  O713     1.0000 0.50000  0.00000  0.69100  Biso   1.000  O
  O714     1.0000 0.50000  0.00000  0.30900  Biso   1.000  O
  O715     1.0000 0.19100  0.00000  0.00000  Biso   1.000  O
  O716     1.0000 0.80900  0.00000  0.00000  Biso   1.000  O
  O717     1.0000 0.00000  0.19100  0.00000  Biso   1.000  O
  O718     1.0000 0.00000  0.80900  0.00000  Biso   1.000  O
  O719     1.0000 0.00000  0.50000  0.69100  Biso   1.000  O
  O720     1.0000 0.00000  0.50000  0.30900  Biso   1.000  O
  O721     1.0000 0.69100  0.50000  0.00000  Biso   1.000  O
  O722     1.0000 0.30900  0.50000  0.00000  Biso   1.000  O
  O723     1.0000 0.00000  0.69100  0.50000  Biso   1.000  O
  O724     1.0000 0.00000  0.30900  0.50000  Biso   1.000  O
  O725     1.0000 0.00000  0.00000  0.19100  Biso   1.000  O
  O726     1.0000 0.00000  0.00000  0.80900  Biso   1.000  O
  O727     1.0000 0.69100  0.00000  0.50000  Biso   1.000  O
  O728     1.0000 0.30900  0.00000  0.50000  Biso   1.000  O
  P1       1.0000 0.50000  0.00000  0.50000  Biso   1.000  P
  P2       1.0000 0.50000  0.50000  0.00000  Biso   1.000  P
  P3       1.0000 0.00000  0.50000  0.50000  Biso   1.000  P
  P4       1.0000 0.00000  0.00000  0.00000  Biso   1.000  P
  W1       1.0000 0.40448  0.00000  0.40448  Biso   1.000  W
  W2       1.0000 0.59552  0.00000  0.40448  Biso   1.000  W
  W3       1.0000 0.59552  0.00000  0.59552  Biso   1.000  W
  W4       1.0000 0.40448  0.00000  0.59552  Biso   1.000  W
  W5       1.0000 0.40448  0.40448  0.00000  Biso   1.000  W
  W6       1.0000 0.40448  0.59552  0.00000  Biso   1.000  W
  W7       1.0000 0.59552  0.59552  0.00000  Biso   1.000  W
  W8       1.0000 0.59552  0.40448  0.00000  Biso   1.000  W
  W9       1.0000 0.00000  0.40448  0.40448  Biso   1.000  W
  W10      1.0000 0.00000  0.40448  0.59552  Biso   1.000  W
  W11      1.0000 0.00000  0.59552  0.59552  Biso   1.000  W
  W12      1.0000 0.00000  0.59552  0.40448  Biso   1.000  W
  W13      1.0000 0.40448  0.50000  0.90448  Biso   1.000  W
  W14      1.0000 0.59552  0.50000  0.90448  Biso   1.000  W
  W15      1.0000 0.59552  0.50000  0.09552  Biso   1.000  W
  W16      1.0000 0.40448  0.50000  0.09552  Biso   1.000  W
  W17      1.0000 0.40448  0.90448  0.50000  Biso   1.000  W
  W18      1.0000 0.40448  0.09552  0.50000  Biso   1.000  W
  W19      1.0000 0.59552  0.09552  0.50000  Biso   1.000  W
  W20      1.0000 0.59552  0.90448  0.50000  Biso   1.000  W
  W21      1.0000 0.00000  0.90448  0.90448  Biso   1.000  W
  W22      1.0000 0.00000  0.90448  0.09552  Biso   1.000  W
  W23      1.0000 0.00000  0.09552  0.09552  Biso   1.000  W
  W24      1.0000 0.00000  0.09552  0.90448  Biso   1.000  W
  W25      1.0000 0.90448  0.00000  0.90448  Biso   1.000  W
  W26      1.0000 0.09552  0.00000  0.90448  Biso   1.000  W
  W27      1.0000 0.09552  0.00000  0.09552  Biso   1.000  W
  W28      1.0000 0.90448  0.00000  0.09552  Biso   1.000  W
  W29      1.0000 0.90448  0.40448  0.50000  Biso   1.000  W
  W30      1.0000 0.90448  0.59552  0.50000  Biso   1.000  W
  W31      1.0000 0.09552  0.59552  0.50000  Biso   1.000  W
  W32      1.0000 0.09552  0.40448  0.50000  Biso   1.000  W
  W33      1.0000 0.50000  0.40448  0.90448  Biso   1.000  W
  W34      1.0000 0.50000  0.40448  0.09552  Biso   1.000  W
  W35      1.0000 0.50000  0.59552  0.09552  Biso   1.000  W
  W36      1.0000 0.50000  0.59552  0.90448  Biso   1.000  W
  W37      1.0000 0.90448  0.50000  0.40448  Biso   1.000  W
  W38      1.0000 0.09552  0.50000  0.40448  Biso   1.000  W
  W39      1.0000 0.09552  0.50000  0.59552  Biso   1.000  W
  W40      1.0000 0.90448  0.50000  0.59552  Biso   1.000  W
  W41      1.0000 0.90448  0.90448  0.00000  Biso   1.000  W
  W42      1.0000 0.90448  0.09552  0.00000  Biso   1.000  W
  W43      1.0000 0.09552  0.09552  0.00000  Biso   1.000  W
  W44      1.0000 0.09552  0.90448  0.00000  Biso   1.000  W
  W45      1.0000 0.50000  0.90448  0.40448  Biso   1.000  W
  W46      1.0000 0.50000  0.90448  0.59552  Biso   1.000  W
  W47      1.0000 0.50000  0.09552  0.59552  Biso   1.000  W
  W48      1.0000 0.50000  0.09552  0.40448  Biso   1.000  W
  Cu49     1.0000 0.50000  0.10100  0.60100  Biso   1.000  Cu
  Cu50     1.0000 0.50000  0.89900  0.60100  Biso   1.000  Cu
  Cu51     1.0000 0.50000  0.10100  0.39900  Biso   1.000  Cu
  Cu52     1.0000 0.50000  0.89900  0.39900  Biso   1.000  Cu
  Cu53     1.0000 0.60100  0.50000  0.10100  Biso   1.000  Cu
  Cu54     1.0000 0.60100  0.50000  0.89900  Biso   1.000  Cu
  Cu55     1.0000 0.39900  0.50000  0.10100  Biso   1.000  Cu
  Cu56     1.0000 0.39900  0.50000  0.89900  Biso   1.000  Cu
  Cu57     1.0000 0.10100  0.60100  0.50000  Biso   1.000  Cu
  Cu58     1.0000 0.89900  0.60100  0.50000  Biso   1.000  Cu
  Cu59     1.0000 0.10100  0.39900  0.50000  Biso   1.000  Cu
  Cu60     1.0000 0.89900  0.39900  0.50000  Biso   1.000  Cu
  Cu61     1.0000 0.10100  0.50000  0.39900  Biso   1.000  Cu
  Cu62     1.0000 0.89900  0.50000  0.39900  Biso   1.000  Cu
  Cu63     1.0000 0.10100  0.50000  0.60100  Biso   1.000  Cu
  Cu64     1.0000 0.89900  0.50000  0.60100  Biso   1.000  Cu
  Cu65     1.0000 0.50000  0.60100  0.89900  Biso   1.000  Cu
  Cu66     1.0000 0.50000  0.60100  0.10100  Biso   1.000  Cu
  Cu67     1.0000 0.50000  0.39900  0.89900  Biso   1.000  Cu
  Cu68     1.0000 0.50000  0.39900  0.10100  Biso   1.000  Cu
  Cu69     1.0000 0.60100  0.10100  0.50000  Biso   1.000  Cu
  Cu70     1.0000 0.60100  0.89900  0.50000  Biso   1.000  Cu
  Cu71     1.0000 0.39900  0.10100  0.50000  Biso   1.000  Cu
  Cu72     1.0000 0.39900  0.89900  0.50000  Biso   1.000  Cu
  Cu73     1.0000 0.60100  0.00000  0.60100  Biso   1.000  Cu
  Cu74     1.0000 0.60100  0.00000  0.39900  Biso   1.000  Cu
  Cu75     1.0000 0.39900  0.00000  0.60100  Biso   1.000  Cu
  Cu76     1.0000 0.39900  0.00000  0.39900  Biso   1.000  Cu
  Cu77     1.0000 0.10100  0.10100  0.00000  Biso   1.000  Cu
  Cu78     1.0000 0.89900  0.10100  0.00000  Biso   1.000  Cu
  Cu79     1.0000 0.10100  0.89900  0.00000  Biso   1.000  Cu
  Cu80     1.0000 0.89900  0.89900  0.00000  Biso   1.000  Cu
  Cu81     1.0000 0.10100  0.00000  0.89900  Biso   1.000  Cu
  Cu82     1.0000 0.89900  0.00000  0.89900  Biso   1.000  Cu
  Cu83     1.0000 0.10100  0.00000  0.10100  Biso   1.000  Cu
  Cu84     1.0000 0.89900  0.00000  0.10100  Biso   1.000  Cu
  Cu85     1.0000 0.60100  0.60100  0.00000  Biso   1.000  Cu
  Cu86     1.0000 0.60100  0.39900  0.00000  Biso   1.000  Cu
  Cu87     1.0000 0.39900  0.60100  0.00000  Biso   1.000  Cu
  Cu88     1.0000 0.39900  0.39900  0.00000  Biso   1.000  Cu
  Cu89     1.0000 0.00000  0.10100  0.10100  Biso   1.000  Cu
  Cu90     1.0000 0.00000  0.89900  0.10100  Biso   1.000  Cu
  Cu91     1.0000 0.00000  0.10100  0.89900  Biso   1.000  Cu
  Cu92     1.0000 0.00000  0.89900  0.89900  Biso   1.000  Cu
  Cu93     1.0000 0.00000  0.60100  0.39900  Biso   1.000  Cu
  Cu94     1.0000 0.00000  0.60100  0.60100  Biso   1.000  Cu
  Cu95     1.0000 0.00000  0.39900  0.39900  Biso   1.000  Cu
  Cu96     1.0000 0.00000  0.39900  0.60100  Biso   1.000  Cu
