data_image0
_cell_length_a       14.656
_cell_length_b       14.656
_cell_length_c       16.905
_cell_angle_alpha    90
_cell_angle_beta     90
_cell_angle_gamma    120

_symmetry_space_group_name_H-M    "P 1"
_symmetry_int_tables_number       1

loop_
  _symmetry_equiv_pos_as_xyz
  'x, y, z'

loop_
  _atom_site_label
  _atom_site_occupancy
  _atom_site_fract_x
  _atom_site_fract_y
  _atom_site_fract_z
  _atom_site_thermal_displace_type
  _atom_site_B_iso_or_equiv
  _atom_site_type_symbol
  Cu1      1.0000 0.88326  0.32270  0.14169  Biso   1.000  Cu
  Cu2      1.0000 0.56056  0.88326  0.97502  Biso   1.000  Cu
  Cu3      1.0000 0.67730  0.11674  0.02498  Biso   1.000  Cu
  Cu4      1.0000 0.67730  0.56056  0.80836  Biso   1.000  Cu
  Cu5      1.0000 0.56056  0.67730  0.85831  Biso   1.000  Cu
  Cu6      1.0000 0.11674  0.67730  0.64169  Biso   1.000  Cu
  Cu7      1.0000 0.88326  0.56056  0.69164  Biso   1.000  Cu
  Cu8      1.0000 0.43944  0.11674  0.47502  Biso   1.000  Cu
  Cu9      1.0000 0.32270  0.88326  0.52498  Biso   1.000  Cu
  Cu10     1.0000 0.32270  0.43944  0.30836  Biso   1.000  Cu
  Cu11     1.0000 0.43944  0.32270  0.35831  Biso   1.000  Cu
  Cu12     1.0000 0.11674  0.43944  0.19164  Biso   1.000  Cu
  Cu13     1.0000 0.00000  0.16385  0.16667  Biso   1.000  Cu
  Cu14     1.0000 0.83615  0.00000  0.00000  Biso   1.000  Cu
  Cu15     1.0000 0.83615  0.83615  0.83334  Biso   1.000  Cu
  Cu16     1.0000 0.00000  0.83615  0.66667  Biso   1.000  Cu
  Cu17     1.0000 0.16385  0.00000  0.50000  Biso   1.000  Cu
  Cu18     1.0000 0.16385  0.16385  0.33334  Biso   1.000  Cu
  P1       1.0000 0.91938  0.23500  0.99423  Biso   1.000  P
  P2       1.0000 0.68438  0.91938  0.82756  Biso   1.000  P
  P3       1.0000 0.76500  0.08062  0.17244  Biso   1.000  P
  P4       1.0000 0.76500  0.68438  0.66090  Biso   1.000  P
  P5       1.0000 0.68438  0.76500  0.00577  Biso   1.000  P
  P6       1.0000 0.08062  0.76500  0.49423  Biso   1.000  P
  P7       1.0000 0.91938  0.68438  0.83910  Biso   1.000  P
  P8       1.0000 0.31562  0.08062  0.32756  Biso   1.000  P
  P9       1.0000 0.23500  0.91938  0.67244  Biso   1.000  P
  P10      1.0000 0.23500  0.31562  0.16090  Biso   1.000  P
  P11      1.0000 0.31562  0.23500  0.50577  Biso   1.000  P
  P12      1.0000 0.08062  0.31562  0.33910  Biso   1.000  P
  O1       1.0000 0.95350  0.25530  0.08250  Biso   1.000  O
  O2       1.0000 0.69820  0.95350  0.91583  Biso   1.000  O
  O3       1.0000 0.74470  0.04650  0.08417  Biso   1.000  O
  O4       1.0000 0.74470  0.69820  0.74917  Biso   1.000  O
  O5       1.0000 0.69820  0.74470  0.91750  Biso   1.000  O
  O6       1.0000 0.04650  0.74470  0.58250  Biso   1.000  O
  O7       1.0000 0.95350  0.69820  0.75083  Biso   1.000  O
  O8       1.0000 0.30180  0.04650  0.41583  Biso   1.000  O
  O9       1.0000 0.25530  0.95350  0.58417  Biso   1.000  O
  O10      1.0000 0.25530  0.30180  0.24917  Biso   1.000  O
  O11      1.0000 0.30180  0.25530  0.41750  Biso   1.000  O
  O12      1.0000 0.04650  0.30180  0.25083  Biso   1.000  O
  O13      1.0000 0.81180  0.22640  0.98100  Biso   1.000  O
  O14      1.0000 0.58540  0.81180  0.81433  Biso   1.000  O
  O15      1.0000 0.77360  0.18820  0.18567  Biso   1.000  O
  O16      1.0000 0.77360  0.58540  0.64767  Biso   1.000  O
  O17      1.0000 0.58540  0.77360  0.01900  Biso   1.000  O
  O18      1.0000 0.18820  0.77360  0.48100  Biso   1.000  O
  O19      1.0000 0.81180  0.58540  0.85233  Biso   1.000  O
  O20      1.0000 0.41460  0.18820  0.31433  Biso   1.000  O
  O21      1.0000 0.22640  0.81180  0.68567  Biso   1.000  O
  O22      1.0000 0.22640  0.41460  0.14767  Biso   1.000  O
  O23      1.0000 0.41460  0.22640  0.51900  Biso   1.000  O
  O24      1.0000 0.18820  0.41460  0.35233  Biso   1.000  O
  O25      1.0000 0.92110  0.13810  0.96350  Biso   1.000  O
  O26      1.0000 0.78300  0.92110  0.79683  Biso   1.000  O
  O27      1.0000 0.86190  0.07890  0.20317  Biso   1.000  O
  O28      1.0000 0.86190  0.78300  0.63017  Biso   1.000  O
  O29      1.0000 0.78300  0.86190  0.03650  Biso   1.000  O
  O30      1.0000 0.07890  0.86190  0.46350  Biso   1.000  O
  O31      1.0000 0.92110  0.78300  0.86983  Biso   1.000  O
  O32      1.0000 0.21700  0.07890  0.29683  Biso   1.000  O
  O33      1.0000 0.13810  0.92110  0.70317  Biso   1.000  O
  O34      1.0000 0.13810  0.21700  0.13017  Biso   1.000  O
  O35      1.0000 0.21700  0.13810  0.53650  Biso   1.000  O
  O36      1.0000 0.07890  0.21700  0.36983  Biso   1.000  O
  O37      1.0000 0.95330  0.50110  0.75580  Biso   1.000  O
  O38      1.0000 0.45220  0.95330  0.58913  Biso   1.000  O
  O39      1.0000 0.49890  0.04670  0.41087  Biso   1.000  O
  O40      1.0000 0.49890  0.45220  0.42247  Biso   1.000  O
  O41      1.0000 0.45220  0.49890  0.24420  Biso   1.000  O
  O42      1.0000 0.04670  0.49890  0.25580  Biso   1.000  O
  O43      1.0000 0.95330  0.45220  0.07753  Biso   1.000  O
  O44      1.0000 0.54780  0.04670  0.08913  Biso   1.000  O
  O45      1.0000 0.50110  0.95330  0.91087  Biso   1.000  O
  O46      1.0000 0.50110  0.54780  0.92247  Biso   1.000  O
  O47      1.0000 0.54780  0.50110  0.74420  Biso   1.000  O
  O48      1.0000 0.04670  0.54780  0.57753  Biso   1.000  O
  O49      1.0000 0.12800  0.60090  0.73010  Biso   1.000  O
  O50      1.0000 0.52710  0.12800  0.56343  Biso   1.000  O
  O51      1.0000 0.39910  0.87200  0.43657  Biso   1.000  O
  O52      1.0000 0.39910  0.52710  0.39677  Biso   1.000  O
  O53      1.0000 0.52710  0.39910  0.26990  Biso   1.000  O
  O54      1.0000 0.87200  0.39910  0.23010  Biso   1.000  O
  O55      1.0000 0.12800  0.52710  0.10323  Biso   1.000  O
  O56      1.0000 0.47290  0.87200  0.06343  Biso   1.000  O
  O57      1.0000 0.60090  0.12800  0.93657  Biso   1.000  O
  O58      1.0000 0.60090  0.47290  0.89677  Biso   1.000  O
  O59      1.0000 0.47290  0.60090  0.76990  Biso   1.000  O
  O60      1.0000 0.87200  0.47290  0.60323  Biso   1.000  O
  O61      1.0000 0.70970  0.29020  0.08333  Biso   1.000  O
  O62      1.0000 0.41950  0.70970  0.91666  Biso   1.000  O
  O63      1.0000 0.70980  0.41950  0.75000  Biso   1.000  O
  O64      1.0000 0.29030  0.70980  0.58333  Biso   1.000  O
  O65      1.0000 0.58050  0.29030  0.41666  Biso   1.000  O
  O66      1.0000 0.29020  0.58050  0.25000  Biso   1.000  O
  O67      1.0000 0.36930  0.63070  0.08333  Biso   1.000  O
  O68      1.0000 0.73860  0.36930  0.91666  Biso   1.000  O
  O69      1.0000 0.36930  0.73860  0.75000  Biso   1.000  O
  O70      1.0000 0.63070  0.36930  0.58333  Biso   1.000  O
  O71      1.0000 0.26140  0.63070  0.41666  Biso   1.000  O
  O72      1.0000 0.63070  0.26140  0.25000  Biso   1.000  O
  O73      1.0000 0.13900  0.12400  0.98490  Biso   1.000  O
  O74      1.0000 0.01500  0.13900  0.81823  Biso   1.000  O
  O75      1.0000 0.87600  0.86100  0.18177  Biso   1.000  O
  O76      1.0000 0.87600  0.01500  0.65157  Biso   1.000  O
  O77      1.0000 0.01500  0.87600  0.01510  Biso   1.000  O
  O78      1.0000 0.86100  0.87600  0.48490  Biso   1.000  O
  O79      1.0000 0.13900  0.01500  0.84843  Biso   1.000  O
  O80      1.0000 0.98500  0.86100  0.31823  Biso   1.000  O
  O81      1.0000 0.12400  0.13900  0.68177  Biso   1.000  O
  O82      1.0000 0.12400  0.98500  0.15157  Biso   1.000  O
  O83      1.0000 0.98500  0.12400  0.51510  Biso   1.000  O
  O84      1.0000 0.86100  0.98500  0.34843  Biso   1.000  O
  O85      1.0000 0.96620  0.03380  0.08333  Biso   1.000  O
  O86      1.0000 0.93240  0.96620  0.91666  Biso   1.000  O
  O87      1.0000 0.96620  0.93240  0.75000  Biso   1.000  O
  O88      1.0000 0.03380  0.96620  0.58333  Biso   1.000  O
  O89      1.0000 0.06760  0.03380  0.41666  Biso   1.000  O
  O90      1.0000 0.03380  0.06760  0.25000  Biso   1.000  O
  C1       1.0000 0.02060  0.34280  0.93540  Biso   1.000  C
  C2       1.0000 0.67780  0.02060  0.76873  Biso   1.000  C
  C3       1.0000 0.65720  0.97940  0.23127  Biso   1.000  C
  C4       1.0000 0.65720  0.67780  0.60207  Biso   1.000  C
  C5       1.0000 0.67780  0.65720  0.06460  Biso   1.000  C
  C6       1.0000 0.97940  0.65720  0.43540  Biso   1.000  C
  C7       1.0000 0.02060  0.67780  0.89793  Biso   1.000  C
  C8       1.0000 0.32220  0.97940  0.26873  Biso   1.000  C
  C9       1.0000 0.34280  0.02060  0.73127  Biso   1.000  C
  C10      1.0000 0.34280  0.32220  0.10207  Biso   1.000  C
  C11      1.0000 0.32220  0.34280  0.56460  Biso   1.000  C
  C12      1.0000 0.97940  0.32220  0.39793  Biso   1.000  C
  C13      1.0000 0.99540  0.39250  0.87510  Biso   1.000  C
  C14      1.0000 0.60290  0.99540  0.70843  Biso   1.000  C
  C15      1.0000 0.60750  0.00460  0.29157  Biso   1.000  C
  C16      1.0000 0.60750  0.60290  0.54177  Biso   1.000  C
  C17      1.0000 0.60290  0.60750  0.12490  Biso   1.000  C
  C18      1.0000 0.00460  0.60750  0.37510  Biso   1.000  C
  C19      1.0000 0.99540  0.60290  0.95823  Biso   1.000  C
  C20      1.0000 0.39710  0.00460  0.20843  Biso   1.000  C
  C21      1.0000 0.39250  0.99540  0.79157  Biso   1.000  C
  C22      1.0000 0.39250  0.39710  0.04177  Biso   1.000  C
  C23      1.0000 0.39710  0.39250  0.62490  Biso   1.000  C
  C24      1.0000 0.00460  0.39710  0.45823  Biso   1.000  C
  C25      1.0000 0.07490  0.47000  0.82910  Biso   1.000  C
  C26      1.0000 0.60490  0.07490  0.66243  Biso   1.000  C
  C27      1.0000 0.53000  0.92510  0.33757  Biso   1.000  C
  C28      1.0000 0.53000  0.60490  0.49577  Biso   1.000  C
  C29      1.0000 0.60490  0.53000  0.17090  Biso   1.000  C
  C30      1.0000 0.92510  0.53000  0.32910  Biso   1.000  C
  C31      1.0000 0.07490  0.60490  0.00423  Biso   1.000  C
  C32      1.0000 0.39510  0.92510  0.16243  Biso   1.000  C
  C33      1.0000 0.47000  0.07490  0.83757  Biso   1.000  C
  C34      1.0000 0.47000  0.39510  0.99577  Biso   1.000  C
  C35      1.0000 0.39510  0.47000  0.67090  Biso   1.000  C
  C36      1.0000 0.92510  0.39510  0.50423  Biso   1.000  C
  C37      1.0000 0.18090  0.49780  0.84270  Biso   1.000  C
  C38      1.0000 0.68310  0.18090  0.67603  Biso   1.000  C
  C39      1.0000 0.50220  0.81910  0.32397  Biso   1.000  C
  C40      1.0000 0.50220  0.68310  0.50937  Biso   1.000  C
  C41      1.0000 0.68310  0.50220  0.15730  Biso   1.000  C
  C42      1.0000 0.81910  0.50220  0.34270  Biso   1.000  C
  C43      1.0000 0.18090  0.68310  0.99063  Biso   1.000  C
  C44      1.0000 0.31690  0.81910  0.17603  Biso   1.000  C
  C45      1.0000 0.49780  0.18090  0.82397  Biso   1.000  C
  C46      1.0000 0.49780  0.31690  0.00937  Biso   1.000  C
  C47      1.0000 0.31690  0.49780  0.65730  Biso   1.000  C
  C48      1.0000 0.81910  0.31690  0.49063  Biso   1.000  C
  C49      1.0000 0.20520  0.45060  0.90270  Biso   1.000  C
  C50      1.0000 0.75460  0.20520  0.73603  Biso   1.000  C
  C51      1.0000 0.54940  0.79480  0.26397  Biso   1.000  C
  C52      1.0000 0.54940  0.75460  0.56937  Biso   1.000  C
  C53      1.0000 0.75460  0.54940  0.09730  Biso   1.000  C
  C54      1.0000 0.79480  0.54940  0.40270  Biso   1.000  C
  C55      1.0000 0.20520  0.75460  0.93063  Biso   1.000  C
  C56      1.0000 0.24540  0.79480  0.23603  Biso   1.000  C
  C57      1.0000 0.45060  0.20520  0.76397  Biso   1.000  C
  C58      1.0000 0.45060  0.24540  0.06937  Biso   1.000  C
  C59      1.0000 0.24540  0.45060  0.59730  Biso   1.000  C
  C60      1.0000 0.79480  0.24540  0.43063  Biso   1.000  C
  C61      1.0000 0.12570  0.37290  0.94980  Biso   1.000  C
  C62      1.0000 0.75280  0.12570  0.78313  Biso   1.000  C
  C63      1.0000 0.62710  0.87430  0.21687  Biso   1.000  C
  C64      1.0000 0.62710  0.75280  0.61647  Biso   1.000  C
  C65      1.0000 0.75280  0.62710  0.05020  Biso   1.000  C
  C66      1.0000 0.87430  0.62710  0.44980  Biso   1.000  C
  C67      1.0000 0.12570  0.75280  0.88353  Biso   1.000  C
  C68      1.0000 0.24720  0.87430  0.28313  Biso   1.000  C
  C69      1.0000 0.37290  0.12570  0.71687  Biso   1.000  C
  C70      1.0000 0.37290  0.24720  0.11647  Biso   1.000  C
  C71      1.0000 0.24720  0.37290  0.55020  Biso   1.000  C
  C72      1.0000 0.87430  0.24720  0.38353  Biso   1.000  C
  C73      1.0000 0.05000  0.52760  0.76610  Biso   1.000  C
  C74      1.0000 0.52240  0.05000  0.59943  Biso   1.000  C
  C75      1.0000 0.47240  0.95000  0.40057  Biso   1.000  C
  C76      1.0000 0.47240  0.52240  0.43277  Biso   1.000  C
  C77      1.0000 0.52240  0.47240  0.23390  Biso   1.000  C
  C78      1.0000 0.95000  0.47240  0.26610  Biso   1.000  C
  C79      1.0000 0.05000  0.52240  0.06723  Biso   1.000  C
  C80      1.0000 0.47760  0.95000  0.09943  Biso   1.000  C
  C81      1.0000 0.52760  0.05000  0.90057  Biso   1.000  C
  C82      1.0000 0.52760  0.47760  0.93277  Biso   1.000  C
  C83      1.0000 0.47760  0.52760  0.73390  Biso   1.000  C
  C84      1.0000 0.95000  0.47760  0.56723  Biso   1.000  C
  H1       1.0000 0.93550  0.37780  0.86840  Biso   1.000  H
  H2       1.0000 0.55770  0.93550  0.70173  Biso   1.000  H
  H3       1.0000 0.62220  0.06450  0.29827  Biso   1.000  H
  H4       1.0000 0.62220  0.55770  0.53507  Biso   1.000  H
  H5       1.0000 0.55770  0.62220  0.13160  Biso   1.000  H
  H6       1.0000 0.06450  0.62220  0.36840  Biso   1.000  H
  H7       1.0000 0.93550  0.55770  0.96493  Biso   1.000  H
  H8       1.0000 0.44230  0.06450  0.20173  Biso   1.000  H
  H9       1.0000 0.37780  0.93550  0.79827  Biso   1.000  H
  H10      1.0000 0.37780  0.44230  0.03507  Biso   1.000  H
  H11      1.0000 0.44230  0.37780  0.63160  Biso   1.000  H
  H12      1.0000 0.06450  0.44230  0.46493  Biso   1.000  H
  H13      1.0000 0.22600  0.54200  0.82100  Biso   1.000  H
  H14      1.0000 0.68400  0.22600  0.65433  Biso   1.000  H
  H15      1.0000 0.45800  0.77400  0.34567  Biso   1.000  H
  H16      1.0000 0.45800  0.68400  0.48767  Biso   1.000  H
  H17      1.0000 0.68400  0.45800  0.17900  Biso   1.000  H
  H18      1.0000 0.77400  0.45800  0.32100  Biso   1.000  H
  H19      1.0000 0.22600  0.68400  0.01233  Biso   1.000  H
  H20      1.0000 0.31600  0.77400  0.15433  Biso   1.000  H
  H21      1.0000 0.54200  0.22600  0.84567  Biso   1.000  H
  H22      1.0000 0.54200  0.31600  0.98767  Biso   1.000  H
  H23      1.0000 0.31600  0.54200  0.67900  Biso   1.000  H
  H24      1.0000 0.77400  0.31600  0.51233  Biso   1.000  H
  H25      1.0000 0.26400  0.47700  0.92300  Biso   1.000  H
  H26      1.0000 0.78700  0.26400  0.75633  Biso   1.000  H
  H27      1.0000 0.52300  0.73600  0.24367  Biso   1.000  H
  H28      1.0000 0.52300  0.78700  0.58967  Biso   1.000  H
  H29      1.0000 0.78700  0.52300  0.07700  Biso   1.000  H
  H30      1.0000 0.73600  0.52300  0.42300  Biso   1.000  H
  H31      1.0000 0.26400  0.78700  0.91033  Biso   1.000  H
  H32      1.0000 0.21300  0.73600  0.25633  Biso   1.000  H
  H33      1.0000 0.47700  0.26400  0.74367  Biso   1.000  H
  H34      1.0000 0.47700  0.21300  0.08967  Biso   1.000  H
  H35      1.0000 0.21300  0.47700  0.57700  Biso   1.000  H
  H36      1.0000 0.73600  0.21300  0.41033  Biso   1.000  H
  H37      1.0000 0.14100  0.35200  0.98900  Biso   1.000  H
  H38      1.0000 0.78900  0.14100  0.82233  Biso   1.000  H
  H39      1.0000 0.64800  0.85900  0.17767  Biso   1.000  H
  H40      1.0000 0.64800  0.78900  0.65567  Biso   1.000  H
  H41      1.0000 0.78900  0.64800  0.01100  Biso   1.000  H
  H42      1.0000 0.85900  0.64800  0.48900  Biso   1.000  H
  H43      1.0000 0.14100  0.78900  0.84433  Biso   1.000  H
  H44      1.0000 0.21100  0.85900  0.32233  Biso   1.000  H
  H45      1.0000 0.35200  0.14100  0.67767  Biso   1.000  H
  H46      1.0000 0.35200  0.21100  0.15567  Biso   1.000  H
  H47      1.0000 0.21100  0.35200  0.51100  Biso   1.000  H
  H48      1.0000 0.85900  0.21100  0.34433  Biso   1.000  H
