data_image0
_cell_length_a       10.702
_cell_length_b       11.186
_cell_length_c       22.584
_cell_angle_alpha    93.8
_cell_angle_beta     90.13
_cell_angle_gamma    115.57

_symmetry_space_group_name_H-M    "P 1"
_symmetry_int_tables_number       1

loop_
  _symmetry_equiv_pos_as_xyz
  'x, y, z'

loop_
  _atom_site_label
  _atom_site_occupancy
  _atom_site_fract_x
  _atom_site_fract_y
  _atom_site_fract_z
  _atom_site_thermal_displace_type
  _atom_site_B_iso_or_equiv
  _atom_site_type_symbol
  C1       1.0000 0.43480  0.70630  0.45590  Biso   1.000  C
  C2       1.0000 0.56520  0.29370  0.54410  Biso   1.000  C
  H1       1.0000 0.36090  0.68600  0.48110  Biso   1.000  H
  H2       1.0000 0.63910  0.31400  0.51890  Biso   1.000  H
  C3       1.0000 0.60910  0.70360  0.41020  Biso   1.000  C
  C4       1.0000 0.39090  0.29640  0.58980  Biso   1.000  C
  H3       1.0000 0.67870  0.67970  0.39800  Biso   1.000  H
  H4       1.0000 0.32130  0.32030  0.60200  Biso   1.000  H
  C5       1.0000 0.58830  0.80510  0.39040  Biso   1.000  C
  C6       1.0000 0.41170  0.19490  0.60960  Biso   1.000  C
  H5       1.0000 0.63950  0.86270  0.36250  Biso   1.000  H
  H6       1.0000 0.36050  0.13730  0.63750  Biso   1.000  H
  C7       1.0000 0.42980  0.91050  0.42100  Biso   1.000  C
  C8       1.0000 0.57020  0.08950  0.57900  Biso   1.000  C
  H7       1.0000 0.33190  0.87260  0.42940  Biso   1.000  H
  H8       1.0000 0.66810  0.12740  0.57060  Biso   1.000  H
  H9       1.0000 0.44090  0.94590  0.38220  Biso   1.000  H
  H10      1.0000 0.55910  0.05410  0.61780  Biso   1.000  H
  C9       1.0000 0.50940  0.02280  0.46760  Biso   1.000  C
  C10      1.0000 0.49060  0.97720  0.53240  Biso   1.000  C
  H11      1.0000 0.47850  0.09210  0.46510  Biso   1.000  H
  H12      1.0000 0.52150  0.90790  0.53490  Biso   1.000  H
  H13      1.0000 0.60710  0.06050  0.45900  Biso   1.000  H
  H14      1.0000 0.39290  0.93950  0.54100  Biso   1.000  H
  C11      1.0000 0.64480  0.49660  0.16497  Biso   1.000  C
  C12      1.0000 0.35520  0.50340  0.83503  Biso   1.000  C
  H15      1.0000 0.59580  0.40450  0.16080  Biso   1.000  H
  H16      1.0000 0.40420  0.59550  0.83920  Biso   1.000  H
  C13      1.0000 0.78480  0.69220  0.19680  Biso   1.000  C
  C14      1.0000 0.21520  0.30780  0.80320  Biso   1.000  C
  H17      1.0000 0.85300  0.76270  0.21940  Biso   1.000  H
  H18      1.0000 0.14700  0.23730  0.78060  Biso   1.000  H
  C15      1.0000 0.71490  0.70460  0.15030  Biso   1.000  C
  C16      1.0000 0.28510  0.29540  0.84970  Biso   1.000  C
  H19      1.0000 0.72540  0.78340  0.13490  Biso   1.000  H
  H20      1.0000 0.27460  0.21660  0.86510  Biso   1.000  H
  C17      1.0000 0.52540  0.53900  0.07937  Biso   1.000  C
  C18      1.0000 0.47460  0.46100  0.92063  Biso   1.000  C
  H21      1.0000 0.57580  0.55930  0.04290  Biso   1.000  H
  H22      1.0000 0.42420  0.44070  0.95710  Biso   1.000  H
  H23      1.0000 0.46940  0.44370  0.07780  Biso   1.000  H
  H24      1.0000 0.53060  0.55630  0.92220  Biso   1.000  H
  C19      1.0000 0.43190  0.60780  0.08302  Biso   1.000  C
  C20      1.0000 0.56810  0.39220  0.91698  Biso   1.000  C
  H25      1.0000 0.48830  0.70280  0.08280  Biso   1.000  H
  H26      1.0000 0.51170  0.29720  0.91720  Biso   1.000  H
  H27      1.0000 0.37110  0.57980  0.04780  Biso   1.000  H
  H28      1.0000 0.62890  0.42020  0.95220  Biso   1.000  H
  C21      1.0000 0.34350  0.58140  0.13749  Biso   1.000  C
  C22      1.0000 0.65650  0.41860  0.86251  Biso   1.000  C
  H29      1.0000 0.40310  0.61140  0.17300  Biso   1.000  H
  H30      1.0000 0.59690  0.38860  0.82700  Biso   1.000  H
  H31      1.0000 0.28660  0.48660  0.13840  Biso   1.000  H
  H32      1.0000 0.71340  0.51340  0.86160  Biso   1.000  H
  C23      1.0000 0.25180  0.65220  0.13687  Biso   1.000  C
  C24      1.0000 0.74820  0.34780  0.86313  Biso   1.000  C
  H33      1.0000 0.18790  0.61660  0.10280  Biso   1.000  H
  H34      1.0000 0.81210  0.38340  0.89720  Biso   1.000  H
  H35      1.0000 0.30890  0.74560  0.13200  Biso   1.000  H
  H36      1.0000 0.69110  0.25440  0.86800  Biso   1.000  H
  C25      1.0000 0.03880  0.56050  0.19593  Biso   1.000  C
  C26      1.0000 0.96120  0.43950  0.80407  Biso   1.000  C
  H37      1.0000 0.98250  0.50040  0.16580  Biso   1.000  H
  H38      1.0000 0.01750  0.49960  0.83420  Biso   1.000  H
  C27      1.0000 0.11050  0.67300  0.27909  Biso   1.000  C
  C28      1.0000 0.88950  0.32700  0.72091  Biso   1.000  C
  H39      1.0000 0.11260  0.70590  0.31820  Biso   1.000  H
  H40      1.0000 0.88740  0.29410  0.68180  Biso   1.000  H
  C29      1.0000 0.22130  0.71410  0.24290  Biso   1.000  C
  C30      1.0000 0.77870  0.28590  0.75710  Biso   1.000  C
  H41      1.0000 0.31090  0.77840  0.25220  Biso   1.000  H
  H42      1.0000 0.68910  0.22160  0.74780  Biso   1.000  H
  C31      1.0000 0.51760  0.47340  0.29404  Biso   1.000  C
  C32      1.0000 0.48240  0.52660  0.70596  Biso   1.000  C
  H43      1.0000 0.52950  0.53400  0.26580  Biso   1.000  H
  H44      1.0000 0.47050  0.46600  0.73420  Biso   1.000  H
  C33      1.0000 0.55000  0.34160  0.34937  Biso   1.000  C
  C34      1.0000 0.45000  0.65840  0.65063  Biso   1.000  C
  H45      1.0000 0.59010  0.29310  0.36680  Biso   1.000  H
  H46      1.0000 0.40990  0.70690  0.63320  Biso   1.000  H
  C35      1.0000 0.42460  0.33630  0.36149  Biso   1.000  C
  C36      1.0000 0.57540  0.66370  0.63851  Biso   1.000  C
  H47      1.0000 0.36370  0.28480  0.38890  Biso   1.000  H
  H48      1.0000 0.63630  0.71520  0.61110  Biso   1.000  H
  C37      1.0000 0.28190  0.44800  0.32280  Biso   1.000  C
  C38      1.0000 0.71810  0.55200  0.67720  Biso   1.000  C
  H49      1.0000 0.27170  0.48790  0.36090  Biso   1.000  H
  H50      1.0000 0.72830  0.51210  0.63910  Biso   1.000  H
  H51      1.0000 0.29670  0.51190  0.29340  Biso   1.000  H
  H52      1.0000 0.70330  0.48810  0.70660  Biso   1.000  H
  C39      1.0000 0.15120  0.32610  0.30660  Biso   1.000  C
  C40      1.0000 0.84880  0.67390  0.69340  Biso   1.000  C
  H53      1.0000 0.07500  0.35090  0.30470  Biso   1.000  H
  H54      1.0000 0.92500  0.64910  0.69530  Biso   1.000  H
  H55      1.0000 0.13280  0.26560  0.33780  Biso   1.000  H
  H56      1.0000 0.86720  0.73440  0.66220  Biso   1.000  H
  C41      1.0000 0.15530  0.25500  0.24878  Biso   1.000  C
  C42      1.0000 0.84470  0.74500  0.75122  Biso   1.000  C
  H57      1.0000 0.16550  0.31230  0.21690  Biso   1.000  H
  H58      1.0000 0.83450  0.68770  0.78310  Biso   1.000  H
  H59      1.0000 0.23530  0.23560  0.24930  Biso   1.000  H
  H60      1.0000 0.76470  0.76440  0.75070  Biso   1.000  H
  C43      1.0000 0.02290  0.12430  0.23663  Biso   1.000  C
  C44      1.0000 0.97710  0.87570  0.76337  Biso   1.000  C
  H61      1.0000 0.94310  0.14350  0.23380  Biso   1.000  H
  H62      1.0000 0.05690  0.85650  0.76620  Biso   1.000  H
  H63      1.0000 0.01000  0.06820  0.26920  Biso   1.000  H
  H64      1.0000 0.99000  0.93180  0.73080  Biso   1.000  H
  C45      1.0000 0.99520  0.06990  0.12731  Biso   1.000  C
  C46      1.0000 0.00480  0.93010  0.87269  Biso   1.000  C
  H65      1.0000 0.95170  0.12370  0.11960  Biso   1.000  H
  H66      1.0000 0.04830  0.87630  0.88040  Biso   1.000  H
  C47      1.0000 0.09640  0.96990  0.17440  Biso   1.000  C
  C48      1.0000 0.90360  0.03010  0.82560  Biso   1.000  C
  H67      1.0000 0.13500  0.94160  0.20430  Biso   1.000  H
  H68      1.0000 0.86500  0.05840  0.79570  Biso   1.000  H
  C49      1.0000 0.09040  0.93650  0.11610  Biso   1.000  C
  C50      1.0000 0.90960  0.06350  0.88390  Biso   1.000  C
  H69      1.0000 0.12430  0.87950  0.09840  Biso   1.000  H
  H70      1.0000 0.87570  0.12050  0.90160  Biso   1.000  H
  C51      1.0000 0.79450  0.60410  0.50498  Biso   1.000  C
  C52      1.0000 0.20550  0.39590  0.49502  Biso   1.000  C
  C53      1.0000 0.90840  0.55780  0.50057  Biso   1.000  C
  C54      1.0000 0.09160  0.44220  0.49943  Biso   1.000  C
  C55      1.0000 0.96920  0.54780  0.55289  Biso   1.000  C
  C56      1.0000 0.03080  0.45220  0.44711  Biso   1.000  C
  H71      1.0000 0.94990  0.58200  0.58850  Biso   1.000  H
  H72      1.0000 0.05010  0.41800  0.41150  Biso   1.000  H
  C57      1.0000 0.94100  0.51260  0.44689  Biso   1.000  C
  C58      1.0000 0.05900  0.48740  0.55311  Biso   1.000  C
  C59      1.0000 0.88910  0.53320  0.38826  Biso   1.000  C
  C60      1.0000 0.11090  0.46680  0.61174  Biso   1.000  C
  C61      1.0000 0.92810  0.72110  0.99171  Biso   1.000  C
  C62      1.0000 0.07190  0.27890  0.00829  Biso   1.000  C
  C63      1.0000 0.96890  0.60770  0.99340  Biso   1.000  C
  C64      1.0000 0.03110  0.39230  0.00660  Biso   1.000  C
  C65      1.0000 0.08280  0.60520  0.96636  Biso   1.000  C
  C66      1.0000 0.91720  0.39480  0.03364  Biso   1.000  C
  C67      1.0000 0.88610  0.50190  0.02692  Biso   1.000  C
  C68      1.0000 0.11390  0.49810  0.97308  Biso   1.000  C
  H73      1.0000 0.80880  0.50350  0.04500  Biso   1.000  H
  H74      1.0000 0.19120  0.49650  0.95500  Biso   1.000  H
  C69      1.0000 0.17650  0.70870  0.92610  Biso   1.000  C
  C70      1.0000 0.82350  0.29130  0.07390  Biso   1.000  C
  N1       1.0000 0.47730  0.80620  0.41952  Biso   1.000  N
  N2       1.0000 0.52270  0.19380  0.58048  Biso   1.000  N
  N3       1.0000 0.51200  0.64130  0.45093  Biso   1.000  N
  N4       1.0000 0.48800  0.35870  0.54907  Biso   1.000  N
  N5       1.0000 0.60920  0.43090  0.30681  Biso   1.000  N
  N6       1.0000 0.39080  0.56910  0.69319  Biso   1.000  N
  N7       1.0000 0.40380  0.41970  0.32631  Biso   1.000  N
  N8       1.0000 0.59620  0.58030  0.67369  Biso   1.000  N
  N9       1.0000 0.03380  0.05450  0.18131  Biso   1.000  N
  N10      1.0000 0.96620  0.94550  0.81869  Biso   1.000  N
  N11      1.0000 0.02660  0.99930  0.08653  Biso   1.000  N
  N12      1.0000 0.97340  0.00070  0.91347  Biso   1.000  N
  N13      1.0000 0.74230  0.56210  0.20617  Biso   1.000  N
  N14      1.0000 0.25770  0.43790  0.79383  Biso   1.000  N
  N15      1.0000 0.62510  0.57880  0.12999  Biso   1.000  N
  N16      1.0000 0.37490  0.42120  0.87001  Biso   1.000  N
  N17      1.0000 0.17220  0.64070  0.19035  Biso   1.000  N
  N18      1.0000 0.82780  0.35930  0.80965  Biso   1.000  N
  N19      1.0000 0.99590  0.57640  0.24943  Biso   1.000  N
  N20      1.0000 0.00410  0.42360  0.75057  Biso   1.000  N
  O1       1.0000 0.81330  0.70470  0.53623  Biso   1.000  O
  O2       1.0000 0.18670  0.29530  0.46377  Biso   1.000  O
  O3       1.0000 0.68270  0.52250  0.47862  Biso   1.000  O
  O4       1.0000 0.31730  0.47750  0.52138  Biso   1.000  O
  O5       1.0000 0.88270  0.63850  0.38191  Biso   1.000  O
  O6       1.0000 0.11730  0.36150  0.61809  Biso   1.000  O
  O7       1.0000 0.86070  0.44020  0.34745  Biso   1.000  O
  O8       1.0000 0.13930  0.55980  0.65255  Biso   1.000  O
  O9       1.0000 0.02660  0.83560  0.98806  Biso   1.000  O
  O10      1.0000 0.97340  0.16440  0.01194  Biso   1.000  O
  O11      1.0000 0.80450  0.69610  0.99486  Biso   1.000  O
  O12      1.0000 0.19550  0.30390  0.00514  Biso   1.000  O
  O13      1.0000 0.12620  0.71790  0.87869  Biso   1.000  O
  O14      1.0000 0.87380  0.28210  0.12131  Biso   1.000  O
  O15      1.0000 0.30020  0.77200  0.94255  Biso   1.000  O
  O16      1.0000 0.69980  0.22800  0.05745  Biso   1.000  O
  O17      1.0000 0.74630  0.28350  0.22628  Biso   1.000  O
  O18      1.0000 0.25370  0.71650  0.77372  Biso   1.000  O
  O19      1.0000 0.45390  0.19010  0.10640  Biso   1.000  O
  O20      1.0000 0.54610  0.80990  0.89360  Biso   1.000  O
  O21      1.0000 0.36670  0.02630  0.88998  Biso   1.000  O
  O22      1.0000 0.63330  0.97370  0.11002  Biso   1.000  O
  O23      1.0000 0.24260  0.86230  0.65820  Biso   1.000  O
  O24      1.0000 0.75740  0.13770  0.34180  Biso   1.000  O
  O25      1.0000 0.42830  0.06480  0.76200  Biso   1.000  O
  O26      1.0000 0.57170  0.93520  0.23800  Biso   1.000  O
  O27      1.0000 0.08490  0.91020  0.57180  Biso   1.000  O
  O28      1.0000 0.91510  0.08980  0.42820  Biso   1.000  O
  O29      1.0000 0.00440  0.09120  0.63560  Biso   1.000  O
  O30      1.0000 0.99560  0.90880  0.36440  Biso   1.000  O
  O31      1.0000 0.78310  0.94290  0.53100  Biso   1.000  O
  O32      1.0000 0.21690  0.05710  0.46900  Biso   1.000  O
  O33      1.0000 0.45290  0.11870  0.21740  Biso   1.000  O
  O34      1.0000 0.54710  0.88130  0.78260  Biso   1.000  O
  O35      1.0000 0.62530  0.09750  0.94765  Biso   1.000  O
  O36      1.0000 0.37470  0.90250  0.05235  Biso   1.000  O
  O37      1.0000 0.28160  0.11770  0.99999  Biso   1.000  O
  O38      1.0000 0.71840  0.88230  0.00001  Biso   1.000  O
  O39      1.0000 0.74620  0.98670  0.67600  Biso   1.000  O
  O40      1.0000 0.25380  0.01330  0.32400  Biso   1.000  O
  Cu1      1.0000 0.50000  0.50000  0.50000  Biso   1.000  Cu
  Cu2      1.0000 0.79946  0.48951  0.27421  Biso   1.000  Cu
  Cu3      1.0000 0.20054  0.51049  0.72579  Biso   1.000  Cu
  Cu4      1.0000 0.00000  0.00000  0.00000  Biso   1.000  Cu
