data_image0
_cell_length_a       30.7911
_cell_length_b       30.7911
_cell_length_c       30.7911
_cell_angle_alpha    90
_cell_angle_beta     90
_cell_angle_gamma    90

_symmetry_space_group_name_H-M    "P 1"
_symmetry_int_tables_number       1

loop_
  _symmetry_equiv_pos_as_xyz
  'x, y, z'

loop_
  _atom_site_label
  _atom_site_occupancy
  _atom_site_fract_x
  _atom_site_fract_y
  _atom_site_fract_z
  _atom_site_thermal_displace_type
  _atom_site_B_iso_or_equiv
  _atom_site_type_symbol
  Cl1      1.0000 0.25000  0.00000  0.25000  Biso   1.000  Cl
  Cl2      1.0000 0.00000  0.25000  0.25000  Biso   1.000  Cl
  Cl3      1.0000 0.75000  0.00000  0.25000  Biso   1.000  Cl
  Cl4      1.0000 0.00000  0.75000  0.25000  Biso   1.000  Cl
  Cl5      1.0000 0.25000  0.00000  0.75000  Biso   1.000  Cl
  Cl6      1.0000 0.00000  0.25000  0.75000  Biso   1.000  Cl
  Cl7      1.0000 0.75000  0.00000  0.75000  Biso   1.000  Cl
  Cl8      1.0000 0.00000  0.75000  0.75000  Biso   1.000  Cl
  Cl9      1.0000 0.25000  0.25000  0.00000  Biso   1.000  Cl
  Cl10     1.0000 0.75000  0.25000  0.00000  Biso   1.000  Cl
  Cl11     1.0000 0.75000  0.75000  0.00000  Biso   1.000  Cl
  Cl12     1.0000 0.25000  0.75000  0.00000  Biso   1.000  Cl
  Cl13     1.0000 0.25000  0.50000  0.75000  Biso   1.000  Cl
  Cl14     1.0000 0.75000  0.50000  0.75000  Biso   1.000  Cl
  Cl15     1.0000 0.25000  0.50000  0.25000  Biso   1.000  Cl
  Cl16     1.0000 0.75000  0.50000  0.25000  Biso   1.000  Cl
  Cl17     1.0000 0.25000  0.75000  0.50000  Biso   1.000  Cl
  Cl18     1.0000 0.75000  0.75000  0.50000  Biso   1.000  Cl
  Cl19     1.0000 0.75000  0.25000  0.50000  Biso   1.000  Cl
  Cl20     1.0000 0.25000  0.25000  0.50000  Biso   1.000  Cl
  Cl21     1.0000 0.50000  0.25000  0.75000  Biso   1.000  Cl
  Cl22     1.0000 0.50000  0.75000  0.75000  Biso   1.000  Cl
  Cl23     1.0000 0.50000  0.25000  0.25000  Biso   1.000  Cl
  Cl24     1.0000 0.50000  0.75000  0.25000  Biso   1.000  Cl
  Cu1      1.0000 0.16761  0.00000  0.24967  Biso   1.000  Cu
  Cu2      1.0000 0.00000  0.16761  0.24967  Biso   1.000  Cu
  Cu3      1.0000 0.83239  0.00000  0.24967  Biso   1.000  Cu
  Cu4      1.0000 0.00000  0.83239  0.24967  Biso   1.000  Cu
  Cu5      1.0000 0.16761  0.00000  0.75033  Biso   1.000  Cu
  Cu6      1.0000 0.00000  0.16761  0.75033  Biso   1.000  Cu
  Cu7      1.0000 0.83239  0.00000  0.75033  Biso   1.000  Cu
  Cu8      1.0000 0.00000  0.83239  0.75033  Biso   1.000  Cu
  Cu9      1.0000 0.24967  0.16761  0.00000  Biso   1.000  Cu
  Cu10     1.0000 0.83239  0.24967  0.00000  Biso   1.000  Cu
  Cu11     1.0000 0.75033  0.83239  0.00000  Biso   1.000  Cu
  Cu12     1.0000 0.16761  0.75033  0.00000  Biso   1.000  Cu
  Cu13     1.0000 0.24967  0.83239  0.00000  Biso   1.000  Cu
  Cu14     1.0000 0.16761  0.24967  0.00000  Biso   1.000  Cu
  Cu15     1.0000 0.75033  0.16761  0.00000  Biso   1.000  Cu
  Cu16     1.0000 0.83239  0.75033  0.00000  Biso   1.000  Cu
  Cu17     1.0000 0.00000  0.24967  0.16761  Biso   1.000  Cu
  Cu18     1.0000 0.75033  0.00000  0.83239  Biso   1.000  Cu
  Cu19     1.0000 0.75033  0.00000  0.16761  Biso   1.000  Cu
  Cu20     1.0000 0.24967  0.00000  0.83239  Biso   1.000  Cu
  Cu21     1.0000 0.24967  0.00000  0.16761  Biso   1.000  Cu
  Cu22     1.0000 0.00000  0.75033  0.83239  Biso   1.000  Cu
  Cu23     1.0000 0.00000  0.75033  0.16761  Biso   1.000  Cu
  Cu24     1.0000 0.00000  0.24967  0.83239  Biso   1.000  Cu
  Cu25     1.0000 0.16761  0.50000  0.74967  Biso   1.000  Cu
  Cu26     1.0000 0.00000  0.66761  0.74967  Biso   1.000  Cu
  Cu27     1.0000 0.83239  0.50000  0.74967  Biso   1.000  Cu
  Cu28     1.0000 0.00000  0.33239  0.74967  Biso   1.000  Cu
  Cu29     1.0000 0.16761  0.50000  0.25033  Biso   1.000  Cu
  Cu30     1.0000 0.00000  0.66761  0.25033  Biso   1.000  Cu
  Cu31     1.0000 0.83239  0.50000  0.25033  Biso   1.000  Cu
  Cu32     1.0000 0.00000  0.33239  0.25033  Biso   1.000  Cu
  Cu33     1.0000 0.24967  0.66761  0.50000  Biso   1.000  Cu
  Cu34     1.0000 0.83239  0.74967  0.50000  Biso   1.000  Cu
  Cu35     1.0000 0.75033  0.33239  0.50000  Biso   1.000  Cu
  Cu36     1.0000 0.16761  0.25033  0.50000  Biso   1.000  Cu
  Cu37     1.0000 0.24967  0.33239  0.50000  Biso   1.000  Cu
  Cu38     1.0000 0.16761  0.74967  0.50000  Biso   1.000  Cu
  Cu39     1.0000 0.75033  0.66761  0.50000  Biso   1.000  Cu
  Cu40     1.0000 0.83239  0.25033  0.50000  Biso   1.000  Cu
  Cu41     1.0000 0.00000  0.74967  0.66761  Biso   1.000  Cu
  Cu42     1.0000 0.75033  0.50000  0.33239  Biso   1.000  Cu
  Cu43     1.0000 0.75033  0.50000  0.66761  Biso   1.000  Cu
  Cu44     1.0000 0.24967  0.50000  0.33239  Biso   1.000  Cu
  Cu45     1.0000 0.24967  0.50000  0.66761  Biso   1.000  Cu
  Cu46     1.0000 0.00000  0.25033  0.33239  Biso   1.000  Cu
  Cu47     1.0000 0.00000  0.25033  0.66761  Biso   1.000  Cu
  Cu48     1.0000 0.00000  0.74967  0.33239  Biso   1.000  Cu
  Cu49     1.0000 0.66761  0.00000  0.74967  Biso   1.000  Cu
  Cu50     1.0000 0.50000  0.16761  0.74967  Biso   1.000  Cu
  Cu51     1.0000 0.33239  0.00000  0.74967  Biso   1.000  Cu
  Cu52     1.0000 0.50000  0.83239  0.74967  Biso   1.000  Cu
  Cu53     1.0000 0.66761  0.00000  0.25033  Biso   1.000  Cu
  Cu54     1.0000 0.50000  0.16761  0.25033  Biso   1.000  Cu
  Cu55     1.0000 0.33239  0.00000  0.25033  Biso   1.000  Cu
  Cu56     1.0000 0.50000  0.83239  0.25033  Biso   1.000  Cu
  Cu57     1.0000 0.74967  0.16761  0.50000  Biso   1.000  Cu
  Cu58     1.0000 0.33239  0.24967  0.50000  Biso   1.000  Cu
  Cu59     1.0000 0.25033  0.83239  0.50000  Biso   1.000  Cu
  Cu60     1.0000 0.66761  0.75033  0.50000  Biso   1.000  Cu
  Cu61     1.0000 0.74967  0.83239  0.50000  Biso   1.000  Cu
  Cu62     1.0000 0.66761  0.24967  0.50000  Biso   1.000  Cu
  Cu63     1.0000 0.25033  0.16761  0.50000  Biso   1.000  Cu
  Cu64     1.0000 0.33239  0.75033  0.50000  Biso   1.000  Cu
  Cu65     1.0000 0.50000  0.24967  0.66761  Biso   1.000  Cu
  Cu66     1.0000 0.25033  0.00000  0.33239  Biso   1.000  Cu
  Cu67     1.0000 0.25033  0.00000  0.66761  Biso   1.000  Cu
  Cu68     1.0000 0.74967  0.00000  0.33239  Biso   1.000  Cu
  Cu69     1.0000 0.74967  0.00000  0.66761  Biso   1.000  Cu
  Cu70     1.0000 0.50000  0.75033  0.33239  Biso   1.000  Cu
  Cu71     1.0000 0.50000  0.75033  0.66761  Biso   1.000  Cu
  Cu72     1.0000 0.50000  0.24967  0.33239  Biso   1.000  Cu
  Cu73     1.0000 0.66761  0.50000  0.24967  Biso   1.000  Cu
  Cu74     1.0000 0.50000  0.66761  0.24967  Biso   1.000  Cu
  Cu75     1.0000 0.33239  0.50000  0.24967  Biso   1.000  Cu
  Cu76     1.0000 0.50000  0.33239  0.24967  Biso   1.000  Cu
  Cu77     1.0000 0.66761  0.50000  0.75033  Biso   1.000  Cu
  Cu78     1.0000 0.50000  0.66761  0.75033  Biso   1.000  Cu
  Cu79     1.0000 0.33239  0.50000  0.75033  Biso   1.000  Cu
  Cu80     1.0000 0.50000  0.33239  0.75033  Biso   1.000  Cu
  Cu81     1.0000 0.74967  0.66761  0.00000  Biso   1.000  Cu
  Cu82     1.0000 0.33239  0.74967  0.00000  Biso   1.000  Cu
  Cu83     1.0000 0.25033  0.33239  0.00000  Biso   1.000  Cu
  Cu84     1.0000 0.66761  0.25033  0.00000  Biso   1.000  Cu
  Cu85     1.0000 0.74967  0.33239  0.00000  Biso   1.000  Cu
  Cu86     1.0000 0.66761  0.74967  0.00000  Biso   1.000  Cu
  Cu87     1.0000 0.25033  0.66761  0.00000  Biso   1.000  Cu
  Cu88     1.0000 0.33239  0.25033  0.00000  Biso   1.000  Cu
  Cu89     1.0000 0.50000  0.74967  0.16761  Biso   1.000  Cu
  Cu90     1.0000 0.25033  0.50000  0.83239  Biso   1.000  Cu
  Cu91     1.0000 0.25033  0.50000  0.16761  Biso   1.000  Cu
  Cu92     1.0000 0.74967  0.50000  0.83239  Biso   1.000  Cu
  Cu93     1.0000 0.74967  0.50000  0.16761  Biso   1.000  Cu
  Cu94     1.0000 0.50000  0.25033  0.83239  Biso   1.000  Cu
  Cu95     1.0000 0.50000  0.25033  0.16761  Biso   1.000  Cu
  Cu96     1.0000 0.50000  0.74967  0.83239  Biso   1.000  Cu
  O1       1.0000 0.15586  0.04462  0.29273  Biso   1.000  O
  O2       1.0000 0.95538  0.15586  0.29273  Biso   1.000  O
  O3       1.0000 0.84414  0.95538  0.29273  Biso   1.000  O
  O4       1.0000 0.04462  0.84414  0.29273  Biso   1.000  O
  O5       1.0000 0.15586  0.95538  0.70727  Biso   1.000  O
  O6       1.0000 0.04462  0.15586  0.70727  Biso   1.000  O
  O7       1.0000 0.84414  0.04462  0.70727  Biso   1.000  O
  O8       1.0000 0.95538  0.84414  0.70727  Biso   1.000  O
  O9       1.0000 0.29273  0.15586  0.04462  Biso   1.000  O
  O10      1.0000 0.84414  0.29273  0.04462  Biso   1.000  O
  O11      1.0000 0.70727  0.84414  0.04462  Biso   1.000  O
  O12      1.0000 0.15586  0.70727  0.04462  Biso   1.000  O
  O13      1.0000 0.29273  0.84414  0.95538  Biso   1.000  O
  O14      1.0000 0.15586  0.29273  0.95538  Biso   1.000  O
  O15      1.0000 0.70727  0.15586  0.95538  Biso   1.000  O
  O16      1.0000 0.84414  0.70727  0.95538  Biso   1.000  O
  O17      1.0000 0.04462  0.29273  0.15586  Biso   1.000  O
  O18      1.0000 0.70727  0.95538  0.84414  Biso   1.000  O
  O19      1.0000 0.70727  0.04462  0.15586  Biso   1.000  O
  O20      1.0000 0.29273  0.04462  0.84414  Biso   1.000  O
  O21      1.0000 0.29273  0.95538  0.15586  Biso   1.000  O
  O22      1.0000 0.04462  0.70727  0.84414  Biso   1.000  O
  O23      1.0000 0.95538  0.70727  0.15586  Biso   1.000  O
  O24      1.0000 0.95538  0.29273  0.84414  Biso   1.000  O
  O25      1.0000 0.15586  0.54462  0.79273  Biso   1.000  O
  O26      1.0000 0.95538  0.65586  0.79273  Biso   1.000  O
  O27      1.0000 0.84414  0.45538  0.79273  Biso   1.000  O
  O28      1.0000 0.04462  0.34414  0.79273  Biso   1.000  O
  O29      1.0000 0.15586  0.45538  0.20727  Biso   1.000  O
  O30      1.0000 0.04462  0.65586  0.20727  Biso   1.000  O
  O31      1.0000 0.84414  0.54462  0.20727  Biso   1.000  O
  O32      1.0000 0.95538  0.34414  0.20727  Biso   1.000  O
  O33      1.0000 0.29273  0.65586  0.54462  Biso   1.000  O
  O34      1.0000 0.84414  0.79273  0.54462  Biso   1.000  O
  O35      1.0000 0.70727  0.34414  0.54462  Biso   1.000  O
  O36      1.0000 0.15586  0.20727  0.54462  Biso   1.000  O
  O37      1.0000 0.29273  0.34414  0.45538  Biso   1.000  O
  O38      1.0000 0.15586  0.79273  0.45538  Biso   1.000  O
  O39      1.0000 0.70727  0.65586  0.45538  Biso   1.000  O
  O40      1.0000 0.84414  0.20727  0.45538  Biso   1.000  O
  O41      1.0000 0.04462  0.79273  0.65586  Biso   1.000  O
  O42      1.0000 0.70727  0.45538  0.34414  Biso   1.000  O
  O43      1.0000 0.70727  0.54462  0.65586  Biso   1.000  O
  O44      1.0000 0.29273  0.54462  0.34414  Biso   1.000  O
  O45      1.0000 0.29273  0.45538  0.65586  Biso   1.000  O
  O46      1.0000 0.04462  0.20727  0.34414  Biso   1.000  O
  O47      1.0000 0.95538  0.20727  0.65586  Biso   1.000  O
  O48      1.0000 0.95538  0.79273  0.34414  Biso   1.000  O
  O49      1.0000 0.65586  0.04462  0.79273  Biso   1.000  O
  O50      1.0000 0.45538  0.15586  0.79273  Biso   1.000  O
  O51      1.0000 0.34414  0.95538  0.79273  Biso   1.000  O
  O52      1.0000 0.54462  0.84414  0.79273  Biso   1.000  O
  O53      1.0000 0.65586  0.95538  0.20727  Biso   1.000  O
  O54      1.0000 0.54462  0.15586  0.20727  Biso   1.000  O
  O55      1.0000 0.34414  0.04462  0.20727  Biso   1.000  O
  O56      1.0000 0.45538  0.84414  0.20727  Biso   1.000  O
  O57      1.0000 0.79273  0.15586  0.54462  Biso   1.000  O
  O58      1.0000 0.34414  0.29273  0.54462  Biso   1.000  O
  O59      1.0000 0.20727  0.84414  0.54462  Biso   1.000  O
  O60      1.0000 0.65586  0.70727  0.54462  Biso   1.000  O
  O61      1.0000 0.79273  0.84414  0.45538  Biso   1.000  O
  O62      1.0000 0.65586  0.29273  0.45538  Biso   1.000  O
  O63      1.0000 0.20727  0.15586  0.45538  Biso   1.000  O
  O64      1.0000 0.34414  0.70727  0.45538  Biso   1.000  O
  O65      1.0000 0.54462  0.29273  0.65586  Biso   1.000  O
  O66      1.0000 0.20727  0.95538  0.34414  Biso   1.000  O
  O67      1.0000 0.20727  0.04462  0.65586  Biso   1.000  O
  O68      1.0000 0.79273  0.04462  0.34414  Biso   1.000  O
  O69      1.0000 0.79273  0.95538  0.65586  Biso   1.000  O
  O70      1.0000 0.54462  0.70727  0.34414  Biso   1.000  O
  O71      1.0000 0.45538  0.70727  0.65586  Biso   1.000  O
  O72      1.0000 0.45538  0.29273  0.34414  Biso   1.000  O
  O73      1.0000 0.65586  0.54462  0.29273  Biso   1.000  O
  O74      1.0000 0.45538  0.65586  0.29273  Biso   1.000  O
  O75      1.0000 0.34414  0.45538  0.29273  Biso   1.000  O
  O76      1.0000 0.54462  0.34414  0.29273  Biso   1.000  O
  O77      1.0000 0.65586  0.45538  0.70727  Biso   1.000  O
  O78      1.0000 0.54462  0.65586  0.70727  Biso   1.000  O
  O79      1.0000 0.34414  0.54462  0.70727  Biso   1.000  O
  O80      1.0000 0.45538  0.34414  0.70727  Biso   1.000  O
  O81      1.0000 0.79273  0.65586  0.04462  Biso   1.000  O
  O82      1.0000 0.34414  0.79273  0.04462  Biso   1.000  O
  O83      1.0000 0.20727  0.34414  0.04462  Biso   1.000  O
  O84      1.0000 0.65586  0.20727  0.04462  Biso   1.000  O
  O85      1.0000 0.79273  0.34414  0.95538  Biso   1.000  O
  O86      1.0000 0.65586  0.79273  0.95538  Biso   1.000  O
  O87      1.0000 0.20727  0.65586  0.95538  Biso   1.000  O
  O88      1.0000 0.34414  0.20727  0.95538  Biso   1.000  O
  O89      1.0000 0.54462  0.79273  0.15586  Biso   1.000  O
  O90      1.0000 0.20727  0.45538  0.84414  Biso   1.000  O
  O91      1.0000 0.20727  0.54462  0.15586  Biso   1.000  O
  O92      1.0000 0.79273  0.54462  0.84414  Biso   1.000  O
  O93      1.0000 0.79273  0.45538  0.15586  Biso   1.000  O
  O94      1.0000 0.54462  0.20727  0.84414  Biso   1.000  O
  O95      1.0000 0.45538  0.20727  0.15586  Biso   1.000  O
  O96      1.0000 0.45538  0.79273  0.84414  Biso   1.000  O
  O97      1.0000 0.84414  0.95538  0.70727  Biso   1.000  O
  O98      1.0000 0.04462  0.84414  0.70727  Biso   1.000  O
  O99      1.0000 0.15586  0.04462  0.70727  Biso   1.000  O
  O100     1.0000 0.95538  0.15586  0.70727  Biso   1.000  O
  O101     1.0000 0.84414  0.04462  0.29273  Biso   1.000  O
  O102     1.0000 0.95538  0.84414  0.29273  Biso   1.000  O
  O103     1.0000 0.15586  0.95538  0.29273  Biso   1.000  O
  O104     1.0000 0.04462  0.15586  0.29273  Biso   1.000  O
  O105     1.0000 0.70727  0.84414  0.95538  Biso   1.000  O
  O106     1.0000 0.15586  0.70727  0.95538  Biso   1.000  O
  O107     1.0000 0.29273  0.15586  0.95538  Biso   1.000  O
  O108     1.0000 0.84414  0.29273  0.95538  Biso   1.000  O
  O109     1.0000 0.70727  0.15586  0.04462  Biso   1.000  O
  O110     1.0000 0.84414  0.70727  0.04462  Biso   1.000  O
  O111     1.0000 0.29273  0.84414  0.04462  Biso   1.000  O
  O112     1.0000 0.15586  0.29273  0.04462  Biso   1.000  O
  O113     1.0000 0.95538  0.70727  0.84414  Biso   1.000  O
  O114     1.0000 0.29273  0.04462  0.15586  Biso   1.000  O
  O115     1.0000 0.29273  0.95538  0.84414  Biso   1.000  O
  O116     1.0000 0.70727  0.95538  0.15586  Biso   1.000  O
  O117     1.0000 0.70727  0.04462  0.84414  Biso   1.000  O
  O118     1.0000 0.95538  0.29273  0.15586  Biso   1.000  O
  O119     1.0000 0.04462  0.29273  0.84414  Biso   1.000  O
  O120     1.0000 0.04462  0.70727  0.15586  Biso   1.000  O
  O121     1.0000 0.84414  0.45538  0.20727  Biso   1.000  O
  O122     1.0000 0.04462  0.34414  0.20727  Biso   1.000  O
  O123     1.0000 0.15586  0.54462  0.20727  Biso   1.000  O
  O124     1.0000 0.95538  0.65586  0.20727  Biso   1.000  O
  O125     1.0000 0.84414  0.54462  0.79273  Biso   1.000  O
  O126     1.0000 0.95538  0.34414  0.79273  Biso   1.000  O
  O127     1.0000 0.15586  0.45538  0.79273  Biso   1.000  O
  O128     1.0000 0.04462  0.65586  0.79273  Biso   1.000  O
  O129     1.0000 0.70727  0.34414  0.45538  Biso   1.000  O
  O130     1.0000 0.15586  0.20727  0.45538  Biso   1.000  O
  O131     1.0000 0.29273  0.65586  0.45538  Biso   1.000  O
  O132     1.0000 0.84414  0.79273  0.45538  Biso   1.000  O
  O133     1.0000 0.70727  0.65586  0.54462  Biso   1.000  O
  O134     1.0000 0.84414  0.20727  0.54462  Biso   1.000  O
  O135     1.0000 0.29273  0.34414  0.54462  Biso   1.000  O
  O136     1.0000 0.15586  0.79273  0.54462  Biso   1.000  O
  O137     1.0000 0.95538  0.20727  0.34414  Biso   1.000  O
  O138     1.0000 0.29273  0.54462  0.65586  Biso   1.000  O
  O139     1.0000 0.29273  0.45538  0.34414  Biso   1.000  O
  O140     1.0000 0.70727  0.45538  0.65586  Biso   1.000  O
  O141     1.0000 0.70727  0.54462  0.34414  Biso   1.000  O
  O142     1.0000 0.95538  0.79273  0.65586  Biso   1.000  O
  O143     1.0000 0.04462  0.79273  0.34414  Biso   1.000  O
  O144     1.0000 0.04462  0.20727  0.65586  Biso   1.000  O
  O145     1.0000 0.34414  0.95538  0.20727  Biso   1.000  O
  O146     1.0000 0.54462  0.84414  0.20727  Biso   1.000  O
  O147     1.0000 0.65586  0.04462  0.20727  Biso   1.000  O
  O148     1.0000 0.45538  0.15586  0.20727  Biso   1.000  O
  O149     1.0000 0.34414  0.04462  0.79273  Biso   1.000  O
  O150     1.0000 0.45538  0.84414  0.79273  Biso   1.000  O
  O151     1.0000 0.65586  0.95538  0.79273  Biso   1.000  O
  O152     1.0000 0.54462  0.15586  0.79273  Biso   1.000  O
  O153     1.0000 0.20727  0.84414  0.45538  Biso   1.000  O
  O154     1.0000 0.65586  0.70727  0.45538  Biso   1.000  O
  O155     1.0000 0.79273  0.15586  0.45538  Biso   1.000  O
  O156     1.0000 0.34414  0.29273  0.45538  Biso   1.000  O
  O157     1.0000 0.20727  0.15586  0.54462  Biso   1.000  O
  O158     1.0000 0.34414  0.70727  0.54462  Biso   1.000  O
  O159     1.0000 0.79273  0.84414  0.54462  Biso   1.000  O
  O160     1.0000 0.65586  0.29273  0.54462  Biso   1.000  O
  O161     1.0000 0.45538  0.70727  0.34414  Biso   1.000  O
  O162     1.0000 0.79273  0.04462  0.65586  Biso   1.000  O
  O163     1.0000 0.79273  0.95538  0.34414  Biso   1.000  O
  O164     1.0000 0.20727  0.95538  0.65586  Biso   1.000  O
  O165     1.0000 0.20727  0.04462  0.34414  Biso   1.000  O
  O166     1.0000 0.45538  0.29273  0.65586  Biso   1.000  O
  O167     1.0000 0.54462  0.29273  0.34414  Biso   1.000  O
  O168     1.0000 0.54462  0.70727  0.65586  Biso   1.000  O
  O169     1.0000 0.34414  0.45538  0.70727  Biso   1.000  O
  O170     1.0000 0.54462  0.34414  0.70727  Biso   1.000  O
  O171     1.0000 0.65586  0.54462  0.70727  Biso   1.000  O
  O172     1.0000 0.45538  0.65586  0.70727  Biso   1.000  O
  O173     1.0000 0.34414  0.54462  0.29273  Biso   1.000  O
  O174     1.0000 0.45538  0.34414  0.29273  Biso   1.000  O
  O175     1.0000 0.65586  0.45538  0.29273  Biso   1.000  O
  O176     1.0000 0.54462  0.65586  0.29273  Biso   1.000  O
  O177     1.0000 0.20727  0.34414  0.95538  Biso   1.000  O
  O178     1.0000 0.65586  0.20727  0.95538  Biso   1.000  O
  O179     1.0000 0.79273  0.65586  0.95538  Biso   1.000  O
  O180     1.0000 0.34414  0.79273  0.95538  Biso   1.000  O
  O181     1.0000 0.20727  0.65586  0.04462  Biso   1.000  O
  O182     1.0000 0.34414  0.20727  0.04462  Biso   1.000  O
  O183     1.0000 0.79273  0.34414  0.04462  Biso   1.000  O
  O184     1.0000 0.65586  0.79273  0.04462  Biso   1.000  O
  O185     1.0000 0.45538  0.20727  0.84414  Biso   1.000  O
  O186     1.0000 0.79273  0.54462  0.15586  Biso   1.000  O
  O187     1.0000 0.79273  0.45538  0.84414  Biso   1.000  O
  O188     1.0000 0.20727  0.45538  0.15586  Biso   1.000  O
  O189     1.0000 0.20727  0.54462  0.84414  Biso   1.000  O
  O190     1.0000 0.45538  0.79273  0.15586  Biso   1.000  O
  O191     1.0000 0.54462  0.79273  0.84414  Biso   1.000  O
  O192     1.0000 0.54462  0.20727  0.15586  Biso   1.000  O
  O193     1.0000 0.15605  0.95497  0.20750  Biso   1.000  O
  O194     1.0000 0.04503  0.15605  0.20750  Biso   1.000  O
  O195     1.0000 0.84395  0.04503  0.20750  Biso   1.000  O
  O196     1.0000 0.95497  0.84395  0.20750  Biso   1.000  O
  O197     1.0000 0.15605  0.04503  0.79250  Biso   1.000  O
  O198     1.0000 0.95497  0.15605  0.79250  Biso   1.000  O
  O199     1.0000 0.84395  0.95497  0.79250  Biso   1.000  O
  O200     1.0000 0.04503  0.84395  0.79250  Biso   1.000  O
  O201     1.0000 0.20750  0.15605  0.95497  Biso   1.000  O
  O202     1.0000 0.84395  0.20750  0.95497  Biso   1.000  O
  O203     1.0000 0.79250  0.84395  0.95497  Biso   1.000  O
  O204     1.0000 0.15605  0.79250  0.95497  Biso   1.000  O
  O205     1.0000 0.20750  0.84395  0.04503  Biso   1.000  O
  O206     1.0000 0.15605  0.20750  0.04503  Biso   1.000  O
  O207     1.0000 0.79250  0.15605  0.04503  Biso   1.000  O
  O208     1.0000 0.84395  0.79250  0.04503  Biso   1.000  O
  O209     1.0000 0.95497  0.20750  0.15605  Biso   1.000  O
  O210     1.0000 0.79250  0.04503  0.84395  Biso   1.000  O
  O211     1.0000 0.79250  0.95497  0.15605  Biso   1.000  O
  O212     1.0000 0.20750  0.95497  0.84395  Biso   1.000  O
  O213     1.0000 0.20750  0.04503  0.15605  Biso   1.000  O
  O214     1.0000 0.95497  0.79250  0.84395  Biso   1.000  O
  O215     1.0000 0.04503  0.79250  0.15605  Biso   1.000  O
  O216     1.0000 0.04503  0.20750  0.84395  Biso   1.000  O
  O217     1.0000 0.15605  0.45497  0.70750  Biso   1.000  O
  O218     1.0000 0.04503  0.65605  0.70750  Biso   1.000  O
  O219     1.0000 0.84395  0.54503  0.70750  Biso   1.000  O
  O220     1.0000 0.95497  0.34395  0.70750  Biso   1.000  O
  O221     1.0000 0.15605  0.54503  0.29250  Biso   1.000  O
  O222     1.0000 0.95497  0.65605  0.29250  Biso   1.000  O
  O223     1.0000 0.84395  0.45497  0.29250  Biso   1.000  O
  O224     1.0000 0.04503  0.34395  0.29250  Biso   1.000  O
  O225     1.0000 0.20750  0.65605  0.45497  Biso   1.000  O
  O226     1.0000 0.84395  0.70750  0.45497  Biso   1.000  O
  O227     1.0000 0.79250  0.34395  0.45497  Biso   1.000  O
  O228     1.0000 0.15605  0.29250  0.45497  Biso   1.000  O
  O229     1.0000 0.20750  0.34395  0.54503  Biso   1.000  O
  O230     1.0000 0.15605  0.70750  0.54503  Biso   1.000  O
  O231     1.0000 0.79250  0.65605  0.54503  Biso   1.000  O
  O232     1.0000 0.84395  0.29250  0.54503  Biso   1.000  O
  O233     1.0000 0.95497  0.70750  0.65605  Biso   1.000  O
  O234     1.0000 0.79250  0.54503  0.34395  Biso   1.000  O
  O235     1.0000 0.79250  0.45497  0.65605  Biso   1.000  O
  O236     1.0000 0.20750  0.45497  0.34395  Biso   1.000  O
  O237     1.0000 0.20750  0.54503  0.65605  Biso   1.000  O
  O238     1.0000 0.95497  0.29250  0.34395  Biso   1.000  O
  O239     1.0000 0.04503  0.29250  0.65605  Biso   1.000  O
  O240     1.0000 0.04503  0.70750  0.34395  Biso   1.000  O
  O241     1.0000 0.65605  0.95497  0.70750  Biso   1.000  O
  O242     1.0000 0.54503  0.15605  0.70750  Biso   1.000  O
  O243     1.0000 0.34395  0.04503  0.70750  Biso   1.000  O
  O244     1.0000 0.45497  0.84395  0.70750  Biso   1.000  O
  O245     1.0000 0.65605  0.04503  0.29250  Biso   1.000  O
  O246     1.0000 0.45497  0.15605  0.29250  Biso   1.000  O
  O247     1.0000 0.34395  0.95497  0.29250  Biso   1.000  O
  O248     1.0000 0.54503  0.84395  0.29250  Biso   1.000  O
  O249     1.0000 0.70750  0.15605  0.45497  Biso   1.000  O
  O250     1.0000 0.34395  0.20750  0.45497  Biso   1.000  O
  O251     1.0000 0.29250  0.84395  0.45497  Biso   1.000  O
  O252     1.0000 0.65605  0.79250  0.45497  Biso   1.000  O
  O253     1.0000 0.70750  0.84395  0.54503  Biso   1.000  O
  O254     1.0000 0.65605  0.20750  0.54503  Biso   1.000  O
  O255     1.0000 0.29250  0.15605  0.54503  Biso   1.000  O
  O256     1.0000 0.34395  0.79250  0.54503  Biso   1.000  O
  O257     1.0000 0.45497  0.20750  0.65605  Biso   1.000  O
  O258     1.0000 0.29250  0.04503  0.34395  Biso   1.000  O
  O259     1.0000 0.29250  0.95497  0.65605  Biso   1.000  O
  O260     1.0000 0.70750  0.95497  0.34395  Biso   1.000  O
  O261     1.0000 0.70750  0.04503  0.65605  Biso   1.000  O
  O262     1.0000 0.45497  0.79250  0.34395  Biso   1.000  O
  O263     1.0000 0.54503  0.79250  0.65605  Biso   1.000  O
  O264     1.0000 0.54503  0.20750  0.34395  Biso   1.000  O
  O265     1.0000 0.65605  0.45497  0.20750  Biso   1.000  O
  O266     1.0000 0.54503  0.65605  0.20750  Biso   1.000  O
  O267     1.0000 0.34395  0.54503  0.20750  Biso   1.000  O
  O268     1.0000 0.45497  0.34395  0.20750  Biso   1.000  O
  O269     1.0000 0.65605  0.54503  0.79250  Biso   1.000  O
  O270     1.0000 0.45497  0.65605  0.79250  Biso   1.000  O
  O271     1.0000 0.34395  0.45497  0.79250  Biso   1.000  O
  O272     1.0000 0.54503  0.34395  0.79250  Biso   1.000  O
  O273     1.0000 0.70750  0.65605  0.95497  Biso   1.000  O
  O274     1.0000 0.34395  0.70750  0.95497  Biso   1.000  O
  O275     1.0000 0.29250  0.34395  0.95497  Biso   1.000  O
  O276     1.0000 0.65605  0.29250  0.95497  Biso   1.000  O
  O277     1.0000 0.70750  0.34395  0.04503  Biso   1.000  O
  O278     1.0000 0.65605  0.70750  0.04503  Biso   1.000  O
  O279     1.0000 0.29250  0.65605  0.04503  Biso   1.000  O
  O280     1.0000 0.34395  0.29250  0.04503  Biso   1.000  O
  O281     1.0000 0.45497  0.70750  0.15605  Biso   1.000  O
  O282     1.0000 0.29250  0.54503  0.84395  Biso   1.000  O
  O283     1.0000 0.29250  0.45497  0.15605  Biso   1.000  O
  O284     1.0000 0.70750  0.45497  0.84395  Biso   1.000  O
  O285     1.0000 0.70750  0.54503  0.15605  Biso   1.000  O
  O286     1.0000 0.45497  0.29250  0.84395  Biso   1.000  O
  O287     1.0000 0.54503  0.29250  0.15605  Biso   1.000  O
  O288     1.0000 0.54503  0.70750  0.84395  Biso   1.000  O
  O289     1.0000 0.84395  0.04503  0.79250  Biso   1.000  O
  O290     1.0000 0.95497  0.84395  0.79250  Biso   1.000  O
  O291     1.0000 0.15605  0.95497  0.79250  Biso   1.000  O
  O292     1.0000 0.04503  0.15605  0.79250  Biso   1.000  O
  O293     1.0000 0.84395  0.95497  0.20750  Biso   1.000  O
  O294     1.0000 0.04503  0.84395  0.20750  Biso   1.000  O
  O295     1.0000 0.15605  0.04503  0.20750  Biso   1.000  O
  O296     1.0000 0.95497  0.15605  0.20750  Biso   1.000  O
  O297     1.0000 0.79250  0.84395  0.04503  Biso   1.000  O
  O298     1.0000 0.15605  0.79250  0.04503  Biso   1.000  O
  O299     1.0000 0.20750  0.15605  0.04503  Biso   1.000  O
  O300     1.0000 0.84395  0.20750  0.04503  Biso   1.000  O
  O301     1.0000 0.79250  0.15605  0.95497  Biso   1.000  O
  O302     1.0000 0.84395  0.79250  0.95497  Biso   1.000  O
  O303     1.0000 0.20750  0.84395  0.95497  Biso   1.000  O
  O304     1.0000 0.15605  0.20750  0.95497  Biso   1.000  O
  O305     1.0000 0.04503  0.79250  0.84395  Biso   1.000  O
  O306     1.0000 0.20750  0.95497  0.15605  Biso   1.000  O
  O307     1.0000 0.20750  0.04503  0.84395  Biso   1.000  O
  O308     1.0000 0.79250  0.04503  0.15605  Biso   1.000  O
  O309     1.0000 0.79250  0.95497  0.84395  Biso   1.000  O
  O310     1.0000 0.04503  0.20750  0.15605  Biso   1.000  O
  O311     1.0000 0.95497  0.20750  0.84395  Biso   1.000  O
  O312     1.0000 0.95497  0.79250  0.15605  Biso   1.000  O
  O313     1.0000 0.84395  0.54503  0.29250  Biso   1.000  O
  O314     1.0000 0.95497  0.34395  0.29250  Biso   1.000  O
  O315     1.0000 0.15605  0.45497  0.29250  Biso   1.000  O
  O316     1.0000 0.04503  0.65605  0.29250  Biso   1.000  O
  O317     1.0000 0.84395  0.45497  0.70750  Biso   1.000  O
  O318     1.0000 0.04503  0.34395  0.70750  Biso   1.000  O
  O319     1.0000 0.15605  0.54503  0.70750  Biso   1.000  O
  O320     1.0000 0.95497  0.65605  0.70750  Biso   1.000  O
  O321     1.0000 0.79250  0.34395  0.54503  Biso   1.000  O
  O322     1.0000 0.15605  0.29250  0.54503  Biso   1.000  O
  O323     1.0000 0.20750  0.65605  0.54503  Biso   1.000  O
  O324     1.0000 0.84395  0.70750  0.54503  Biso   1.000  O
  O325     1.0000 0.79250  0.65605  0.45497  Biso   1.000  O
  O326     1.0000 0.84395  0.29250  0.45497  Biso   1.000  O
  O327     1.0000 0.20750  0.34395  0.45497  Biso   1.000  O
  O328     1.0000 0.15605  0.70750  0.45497  Biso   1.000  O
  O329     1.0000 0.04503  0.29250  0.34395  Biso   1.000  O
  O330     1.0000 0.20750  0.45497  0.65605  Biso   1.000  O
  O331     1.0000 0.20750  0.54503  0.34395  Biso   1.000  O
  O332     1.0000 0.79250  0.54503  0.65605  Biso   1.000  O
  O333     1.0000 0.79250  0.45497  0.34395  Biso   1.000  O
  O334     1.0000 0.04503  0.70750  0.65605  Biso   1.000  O
  O335     1.0000 0.95497  0.70750  0.34395  Biso   1.000  O
  O336     1.0000 0.95497  0.29250  0.65605  Biso   1.000  O
  O337     1.0000 0.34395  0.04503  0.29250  Biso   1.000  O
  O338     1.0000 0.45497  0.84395  0.29250  Biso   1.000  O
  O339     1.0000 0.65605  0.95497  0.29250  Biso   1.000  O
  O340     1.0000 0.54503  0.15605  0.29250  Biso   1.000  O
  O341     1.0000 0.34395  0.95497  0.70750  Biso   1.000  O
  O342     1.0000 0.54503  0.84395  0.70750  Biso   1.000  O
  O343     1.0000 0.65605  0.04503  0.70750  Biso   1.000  O
  O344     1.0000 0.45497  0.15605  0.70750  Biso   1.000  O
  O345     1.0000 0.29250  0.84395  0.54503  Biso   1.000  O
  O346     1.0000 0.65605  0.79250  0.54503  Biso   1.000  O
  O347     1.0000 0.70750  0.15605  0.54503  Biso   1.000  O
  O348     1.0000 0.34395  0.20750  0.54503  Biso   1.000  O
  O349     1.0000 0.29250  0.15605  0.45497  Biso   1.000  O
  O350     1.0000 0.34395  0.79250  0.45497  Biso   1.000  O
  O351     1.0000 0.70750  0.84395  0.45497  Biso   1.000  O
  O352     1.0000 0.65605  0.20750  0.45497  Biso   1.000  O
  O353     1.0000 0.54503  0.79250  0.34395  Biso   1.000  O
  O354     1.0000 0.70750  0.95497  0.65605  Biso   1.000  O
  O355     1.0000 0.70750  0.04503  0.34395  Biso   1.000  O
  O356     1.0000 0.29250  0.04503  0.65605  Biso   1.000  O
  O357     1.0000 0.29250  0.95497  0.34395  Biso   1.000  O
  O358     1.0000 0.54503  0.20750  0.65605  Biso   1.000  O
  O359     1.0000 0.45497  0.20750  0.34395  Biso   1.000  O
  O360     1.0000 0.45497  0.79250  0.65605  Biso   1.000  O
  O361     1.0000 0.34395  0.54503  0.79250  Biso   1.000  O
  O362     1.0000 0.45497  0.34395  0.79250  Biso   1.000  O
  O363     1.0000 0.65605  0.45497  0.79250  Biso   1.000  O
  O364     1.0000 0.54503  0.65605  0.79250  Biso   1.000  O
  O365     1.0000 0.34395  0.45497  0.20750  Biso   1.000  O
  O366     1.0000 0.54503  0.34395  0.20750  Biso   1.000  O
  O367     1.0000 0.65605  0.54503  0.20750  Biso   1.000  O
  O368     1.0000 0.45497  0.65605  0.20750  Biso   1.000  O
  O369     1.0000 0.29250  0.34395  0.04503  Biso   1.000  O
  O370     1.0000 0.65605  0.29250  0.04503  Biso   1.000  O
  O371     1.0000 0.70750  0.65605  0.04503  Biso   1.000  O
  O372     1.0000 0.34395  0.70750  0.04503  Biso   1.000  O
  O373     1.0000 0.29250  0.65605  0.95497  Biso   1.000  O
  O374     1.0000 0.34395  0.29250  0.95497  Biso   1.000  O
  O375     1.0000 0.70750  0.34395  0.95497  Biso   1.000  O
  O376     1.0000 0.65605  0.70750  0.95497  Biso   1.000  O
  O377     1.0000 0.54503  0.29250  0.84395  Biso   1.000  O
  O378     1.0000 0.70750  0.45497  0.15605  Biso   1.000  O
  O379     1.0000 0.70750  0.54503  0.84395  Biso   1.000  O
  O380     1.0000 0.29250  0.54503  0.15605  Biso   1.000  O
  O381     1.0000 0.29250  0.45497  0.84395  Biso   1.000  O
  O382     1.0000 0.54503  0.70750  0.15605  Biso   1.000  O
  O383     1.0000 0.45497  0.70750  0.84395  Biso   1.000  O
  O384     1.0000 0.45497  0.29250  0.15605  Biso   1.000  O
  C1       1.0000 0.17338  0.05822  0.32662  Biso   1.000  C
  C2       1.0000 0.94178  0.17338  0.32662  Biso   1.000  C
  C3       1.0000 0.82662  0.94178  0.32662  Biso   1.000  C
  C4       1.0000 0.05822  0.82662  0.32662  Biso   1.000  C
  C5       1.0000 0.17338  0.94178  0.67338  Biso   1.000  C
  C6       1.0000 0.05822  0.17338  0.67338  Biso   1.000  C
  C7       1.0000 0.82662  0.05822  0.67338  Biso   1.000  C
  C8       1.0000 0.94178  0.82662  0.67338  Biso   1.000  C
  C9       1.0000 0.32662  0.17338  0.05822  Biso   1.000  C
  C10      1.0000 0.82662  0.32662  0.05822  Biso   1.000  C
  C11      1.0000 0.67338  0.82662  0.05822  Biso   1.000  C
  C12      1.0000 0.17338  0.67338  0.05822  Biso   1.000  C
  C13      1.0000 0.32662  0.82662  0.94178  Biso   1.000  C
  C14      1.0000 0.17338  0.32662  0.94178  Biso   1.000  C
  C15      1.0000 0.67338  0.17338  0.94178  Biso   1.000  C
  C16      1.0000 0.82662  0.67338  0.94178  Biso   1.000  C
  C17      1.0000 0.05822  0.32662  0.17338  Biso   1.000  C
  C18      1.0000 0.67338  0.94178  0.82662  Biso   1.000  C
  C19      1.0000 0.67338  0.05822  0.17338  Biso   1.000  C
  C20      1.0000 0.32662  0.05822  0.82662  Biso   1.000  C
  C21      1.0000 0.32662  0.94178  0.17338  Biso   1.000  C
  C22      1.0000 0.05822  0.67338  0.82662  Biso   1.000  C
  C23      1.0000 0.94178  0.67338  0.17338  Biso   1.000  C
  C24      1.0000 0.94178  0.32662  0.82662  Biso   1.000  C
  C25      1.0000 0.17338  0.55822  0.82662  Biso   1.000  C
  C26      1.0000 0.94178  0.67338  0.82662  Biso   1.000  C
  C27      1.0000 0.82662  0.44178  0.82662  Biso   1.000  C
  C28      1.0000 0.05822  0.32662  0.82662  Biso   1.000  C
  C29      1.0000 0.17338  0.44178  0.17338  Biso   1.000  C
  C30      1.0000 0.05822  0.67338  0.17338  Biso   1.000  C
  C31      1.0000 0.82662  0.55822  0.17338  Biso   1.000  C
  C32      1.0000 0.94178  0.32662  0.17338  Biso   1.000  C
  C33      1.0000 0.32662  0.67338  0.55822  Biso   1.000  C
  C34      1.0000 0.82662  0.82662  0.55822  Biso   1.000  C
  C35      1.0000 0.67338  0.32662  0.55822  Biso   1.000  C
  C36      1.0000 0.17338  0.17338  0.55822  Biso   1.000  C
  C37      1.0000 0.32662  0.32662  0.44178  Biso   1.000  C
  C38      1.0000 0.17338  0.82662  0.44178  Biso   1.000  C
  C39      1.0000 0.67338  0.67338  0.44178  Biso   1.000  C
  C40      1.0000 0.82662  0.17338  0.44178  Biso   1.000  C
  C41      1.0000 0.05822  0.82662  0.67338  Biso   1.000  C
  C42      1.0000 0.67338  0.44178  0.32662  Biso   1.000  C
  C43      1.0000 0.67338  0.55822  0.67338  Biso   1.000  C
  C44      1.0000 0.32662  0.55822  0.32662  Biso   1.000  C
  C45      1.0000 0.32662  0.44178  0.67338  Biso   1.000  C
  C46      1.0000 0.05822  0.17338  0.32662  Biso   1.000  C
  C47      1.0000 0.94178  0.17338  0.67338  Biso   1.000  C
  C48      1.0000 0.94178  0.82662  0.32662  Biso   1.000  C
  C49      1.0000 0.67338  0.05822  0.82662  Biso   1.000  C
  C50      1.0000 0.44178  0.17338  0.82662  Biso   1.000  C
  C51      1.0000 0.32662  0.94178  0.82662  Biso   1.000  C
  C52      1.0000 0.55822  0.82662  0.82662  Biso   1.000  C
  C53      1.0000 0.67338  0.94178  0.17338  Biso   1.000  C
  C54      1.0000 0.55822  0.17338  0.17338  Biso   1.000  C
  C55      1.0000 0.32662  0.05822  0.17338  Biso   1.000  C
  C56      1.0000 0.44178  0.82662  0.17338  Biso   1.000  C
  C57      1.0000 0.82662  0.17338  0.55822  Biso   1.000  C
  C58      1.0000 0.32662  0.32662  0.55822  Biso   1.000  C
  C59      1.0000 0.17338  0.82662  0.55822  Biso   1.000  C
  C60      1.0000 0.67338  0.67338  0.55822  Biso   1.000  C
  C61      1.0000 0.82662  0.82662  0.44178  Biso   1.000  C
  C62      1.0000 0.67338  0.32662  0.44178  Biso   1.000  C
  C63      1.0000 0.17338  0.17338  0.44178  Biso   1.000  C
  C64      1.0000 0.32662  0.67338  0.44178  Biso   1.000  C
  C65      1.0000 0.55822  0.32662  0.67338  Biso   1.000  C
  C66      1.0000 0.17338  0.94178  0.32662  Biso   1.000  C
  C67      1.0000 0.17338  0.05822  0.67338  Biso   1.000  C
  C68      1.0000 0.82662  0.05822  0.32662  Biso   1.000  C
  C69      1.0000 0.82662  0.94178  0.67338  Biso   1.000  C
  C70      1.0000 0.55822  0.67338  0.32662  Biso   1.000  C
  C71      1.0000 0.44178  0.67338  0.67338  Biso   1.000  C
  C72      1.0000 0.44178  0.32662  0.32662  Biso   1.000  C
  C73      1.0000 0.67338  0.55822  0.32662  Biso   1.000  C
  C74      1.0000 0.44178  0.67338  0.32662  Biso   1.000  C
  C75      1.0000 0.32662  0.44178  0.32662  Biso   1.000  C
  C76      1.0000 0.55822  0.32662  0.32662  Biso   1.000  C
  C77      1.0000 0.67338  0.44178  0.67338  Biso   1.000  C
  C78      1.0000 0.55822  0.67338  0.67338  Biso   1.000  C
  C79      1.0000 0.32662  0.55822  0.67338  Biso   1.000  C
  C80      1.0000 0.44178  0.32662  0.67338  Biso   1.000  C
  C81      1.0000 0.82662  0.67338  0.05822  Biso   1.000  C
  C82      1.0000 0.32662  0.82662  0.05822  Biso   1.000  C
  C83      1.0000 0.17338  0.32662  0.05822  Biso   1.000  C
  C84      1.0000 0.67338  0.17338  0.05822  Biso   1.000  C
  C85      1.0000 0.82662  0.32662  0.94178  Biso   1.000  C
  C86      1.0000 0.67338  0.82662  0.94178  Biso   1.000  C
  C87      1.0000 0.17338  0.67338  0.94178  Biso   1.000  C
  C88      1.0000 0.32662  0.17338  0.94178  Biso   1.000  C
  C89      1.0000 0.55822  0.82662  0.17338  Biso   1.000  C
  C90      1.0000 0.17338  0.44178  0.82662  Biso   1.000  C
  C91      1.0000 0.17338  0.55822  0.17338  Biso   1.000  C
  C92      1.0000 0.82662  0.55822  0.82662  Biso   1.000  C
  C93      1.0000 0.82662  0.44178  0.17338  Biso   1.000  C
  C94      1.0000 0.55822  0.17338  0.82662  Biso   1.000  C
  C95      1.0000 0.44178  0.17338  0.17338  Biso   1.000  C
  C96      1.0000 0.44178  0.82662  0.82662  Biso   1.000  C
  C97      1.0000 0.15235  0.09690  0.34765  Biso   1.000  C
  C98      1.0000 0.90310  0.15235  0.34765  Biso   1.000  C
  C99      1.0000 0.84765  0.90310  0.34765  Biso   1.000  C
  C100     1.0000 0.09690  0.84765  0.34765  Biso   1.000  C
  C101     1.0000 0.15235  0.90310  0.65235  Biso   1.000  C
  C102     1.0000 0.09690  0.15235  0.65235  Biso   1.000  C
  C103     1.0000 0.84765  0.09690  0.65235  Biso   1.000  C
  C104     1.0000 0.90310  0.84765  0.65235  Biso   1.000  C
  C105     1.0000 0.34765  0.15235  0.09690  Biso   1.000  C
  C106     1.0000 0.84765  0.34765  0.09690  Biso   1.000  C
  C107     1.0000 0.65235  0.84765  0.09690  Biso   1.000  C
  C108     1.0000 0.15235  0.65235  0.09690  Biso   1.000  C
  C109     1.0000 0.34765  0.84765  0.90310  Biso   1.000  C
  C110     1.0000 0.15235  0.34765  0.90310  Biso   1.000  C
  C111     1.0000 0.65235  0.15235  0.90310  Biso   1.000  C
  C112     1.0000 0.84765  0.65235  0.90310  Biso   1.000  C
  C113     1.0000 0.09690  0.34765  0.15235  Biso   1.000  C
  C114     1.0000 0.65235  0.90310  0.84765  Biso   1.000  C
  C115     1.0000 0.65235  0.09690  0.15235  Biso   1.000  C
  C116     1.0000 0.34765  0.09690  0.84765  Biso   1.000  C
  C117     1.0000 0.34765  0.90310  0.15235  Biso   1.000  C
  C118     1.0000 0.09690  0.65235  0.84765  Biso   1.000  C
  C119     1.0000 0.90310  0.65235  0.15235  Biso   1.000  C
  C120     1.0000 0.90310  0.34765  0.84765  Biso   1.000  C
  C121     1.0000 0.15235  0.59690  0.84765  Biso   1.000  C
  C122     1.0000 0.90310  0.65235  0.84765  Biso   1.000  C
  C123     1.0000 0.84765  0.40310  0.84765  Biso   1.000  C
  C124     1.0000 0.09690  0.34765  0.84765  Biso   1.000  C
  C125     1.0000 0.15235  0.40310  0.15235  Biso   1.000  C
  C126     1.0000 0.09690  0.65235  0.15235  Biso   1.000  C
  C127     1.0000 0.84765  0.59690  0.15235  Biso   1.000  C
  C128     1.0000 0.90310  0.34765  0.15235  Biso   1.000  C
  C129     1.0000 0.34765  0.65235  0.59690  Biso   1.000  C
  C130     1.0000 0.84765  0.84765  0.59690  Biso   1.000  C
  C131     1.0000 0.65235  0.34765  0.59690  Biso   1.000  C
  C132     1.0000 0.15235  0.15235  0.59690  Biso   1.000  C
  C133     1.0000 0.34765  0.34765  0.40310  Biso   1.000  C
  C134     1.0000 0.15235  0.84765  0.40310  Biso   1.000  C
  C135     1.0000 0.65235  0.65235  0.40310  Biso   1.000  C
  C136     1.0000 0.84765  0.15235  0.40310  Biso   1.000  C
  C137     1.0000 0.09690  0.84765  0.65235  Biso   1.000  C
  C138     1.0000 0.65235  0.40310  0.34765  Biso   1.000  C
  C139     1.0000 0.65235  0.59690  0.65235  Biso   1.000  C
  C140     1.0000 0.34765  0.59690  0.34765  Biso   1.000  C
  C141     1.0000 0.34765  0.40310  0.65235  Biso   1.000  C
  C142     1.0000 0.09690  0.15235  0.34765  Biso   1.000  C
  C143     1.0000 0.90310  0.15235  0.65235  Biso   1.000  C
  C144     1.0000 0.90310  0.84765  0.34765  Biso   1.000  C
  C145     1.0000 0.65235  0.09690  0.84765  Biso   1.000  C
  C146     1.0000 0.40310  0.15235  0.84765  Biso   1.000  C
  C147     1.0000 0.34765  0.90310  0.84765  Biso   1.000  C
  C148     1.0000 0.59690  0.84765  0.84765  Biso   1.000  C
  C149     1.0000 0.65235  0.90310  0.15235  Biso   1.000  C
  C150     1.0000 0.59690  0.15235  0.15235  Biso   1.000  C
  C151     1.0000 0.34765  0.09690  0.15235  Biso   1.000  C
  C152     1.0000 0.40310  0.84765  0.15235  Biso   1.000  C
  C153     1.0000 0.84765  0.15235  0.59690  Biso   1.000  C
  C154     1.0000 0.34765  0.34765  0.59690  Biso   1.000  C
  C155     1.0000 0.15235  0.84765  0.59690  Biso   1.000  C
  C156     1.0000 0.65235  0.65235  0.59690  Biso   1.000  C
  C157     1.0000 0.84765  0.84765  0.40310  Biso   1.000  C
  C158     1.0000 0.65235  0.34765  0.40310  Biso   1.000  C
  C159     1.0000 0.15235  0.15235  0.40310  Biso   1.000  C
  C160     1.0000 0.34765  0.65235  0.40310  Biso   1.000  C
  C161     1.0000 0.59690  0.34765  0.65235  Biso   1.000  C
  C162     1.0000 0.15235  0.90310  0.34765  Biso   1.000  C
  C163     1.0000 0.15235  0.09690  0.65235  Biso   1.000  C
  C164     1.0000 0.84765  0.09690  0.34765  Biso   1.000  C
  C165     1.0000 0.84765  0.90310  0.65235  Biso   1.000  C
  C166     1.0000 0.59690  0.65235  0.34765  Biso   1.000  C
  C167     1.0000 0.40310  0.65235  0.65235  Biso   1.000  C
  C168     1.0000 0.40310  0.34765  0.34765  Biso   1.000  C
  C169     1.0000 0.65235  0.59690  0.34765  Biso   1.000  C
  C170     1.0000 0.40310  0.65235  0.34765  Biso   1.000  C
  C171     1.0000 0.34765  0.40310  0.34765  Biso   1.000  C
  C172     1.0000 0.59690  0.34765  0.34765  Biso   1.000  C
  C173     1.0000 0.65235  0.40310  0.65235  Biso   1.000  C
  C174     1.0000 0.59690  0.65235  0.65235  Biso   1.000  C
  C175     1.0000 0.34765  0.59690  0.65235  Biso   1.000  C
  C176     1.0000 0.40310  0.34765  0.65235  Biso   1.000  C
  C177     1.0000 0.84765  0.65235  0.09690  Biso   1.000  C
  C178     1.0000 0.34765  0.84765  0.09690  Biso   1.000  C
  C179     1.0000 0.15235  0.34765  0.09690  Biso   1.000  C
  C180     1.0000 0.65235  0.15235  0.09690  Biso   1.000  C
  C181     1.0000 0.84765  0.34765  0.90310  Biso   1.000  C
  C182     1.0000 0.65235  0.84765  0.90310  Biso   1.000  C
  C183     1.0000 0.15235  0.65235  0.90310  Biso   1.000  C
  C184     1.0000 0.34765  0.15235  0.90310  Biso   1.000  C
  C185     1.0000 0.59690  0.84765  0.15235  Biso   1.000  C
  C186     1.0000 0.15235  0.40310  0.84765  Biso   1.000  C
  C187     1.0000 0.15235  0.59690  0.15235  Biso   1.000  C
  C188     1.0000 0.84765  0.59690  0.84765  Biso   1.000  C
  C189     1.0000 0.84765  0.40310  0.15235  Biso   1.000  C
  C190     1.0000 0.59690  0.15235  0.84765  Biso   1.000  C
  C191     1.0000 0.40310  0.15235  0.15235  Biso   1.000  C
  C192     1.0000 0.40310  0.84765  0.84765  Biso   1.000  C
  C193     1.0000 0.11513  0.11513  0.32949  Biso   1.000  C
  C194     1.0000 0.88487  0.11513  0.32949  Biso   1.000  C
  C195     1.0000 0.88487  0.88487  0.32949  Biso   1.000  C
  C196     1.0000 0.11513  0.88487  0.32949  Biso   1.000  C
  C197     1.0000 0.11513  0.88487  0.67051  Biso   1.000  C
  C198     1.0000 0.11513  0.11513  0.67051  Biso   1.000  C
  C199     1.0000 0.88487  0.11513  0.67051  Biso   1.000  C
  C200     1.0000 0.88487  0.88487  0.67051  Biso   1.000  C
  C201     1.0000 0.32949  0.11513  0.11513  Biso   1.000  C
  C202     1.0000 0.88487  0.32949  0.11513  Biso   1.000  C
  C203     1.0000 0.67051  0.88487  0.11513  Biso   1.000  C
  C204     1.0000 0.11513  0.67051  0.11513  Biso   1.000  C
  C205     1.0000 0.32949  0.88487  0.88487  Biso   1.000  C
  C206     1.0000 0.11513  0.32949  0.88487  Biso   1.000  C
  C207     1.0000 0.67051  0.11513  0.88487  Biso   1.000  C
  C208     1.0000 0.88487  0.67051  0.88487  Biso   1.000  C
  C209     1.0000 0.11513  0.32949  0.11513  Biso   1.000  C
  C210     1.0000 0.67051  0.88487  0.88487  Biso   1.000  C
  C211     1.0000 0.67051  0.11513  0.11513  Biso   1.000  C
  C212     1.0000 0.32949  0.11513  0.88487  Biso   1.000  C
  C213     1.0000 0.32949  0.88487  0.11513  Biso   1.000  C
  C214     1.0000 0.11513  0.67051  0.88487  Biso   1.000  C
  C215     1.0000 0.88487  0.67051  0.11513  Biso   1.000  C
  C216     1.0000 0.88487  0.32949  0.88487  Biso   1.000  C
  C217     1.0000 0.11513  0.61513  0.82949  Biso   1.000  C
  C218     1.0000 0.88487  0.61513  0.82949  Biso   1.000  C
  C219     1.0000 0.88487  0.38487  0.82949  Biso   1.000  C
  C220     1.0000 0.11513  0.38487  0.82949  Biso   1.000  C
  C221     1.0000 0.11513  0.38487  0.17051  Biso   1.000  C
  C222     1.0000 0.11513  0.61513  0.17051  Biso   1.000  C
  C223     1.0000 0.88487  0.61513  0.17051  Biso   1.000  C
  C224     1.0000 0.88487  0.38487  0.17051  Biso   1.000  C
  C225     1.0000 0.32949  0.61513  0.61513  Biso   1.000  C
  C226     1.0000 0.88487  0.82949  0.61513  Biso   1.000  C
  C227     1.0000 0.67051  0.38487  0.61513  Biso   1.000  C
  C228     1.0000 0.11513  0.17051  0.61513  Biso   1.000  C
  C229     1.0000 0.32949  0.38487  0.38487  Biso   1.000  C
  C230     1.0000 0.11513  0.82949  0.38487  Biso   1.000  C
  C231     1.0000 0.67051  0.61513  0.38487  Biso   1.000  C
  C232     1.0000 0.88487  0.17051  0.38487  Biso   1.000  C
  C233     1.0000 0.11513  0.82949  0.61513  Biso   1.000  C
  C234     1.0000 0.67051  0.38487  0.38487  Biso   1.000  C
  C235     1.0000 0.67051  0.61513  0.61513  Biso   1.000  C
  C236     1.0000 0.32949  0.61513  0.38487  Biso   1.000  C
  C237     1.0000 0.32949  0.38487  0.61513  Biso   1.000  C
  C238     1.0000 0.11513  0.17051  0.38487  Biso   1.000  C
  C239     1.0000 0.88487  0.17051  0.61513  Biso   1.000  C
  C240     1.0000 0.88487  0.82949  0.38487  Biso   1.000  C
  C241     1.0000 0.61513  0.11513  0.82949  Biso   1.000  C
  C242     1.0000 0.38487  0.11513  0.82949  Biso   1.000  C
  C243     1.0000 0.38487  0.88487  0.82949  Biso   1.000  C
  C244     1.0000 0.61513  0.88487  0.82949  Biso   1.000  C
  C245     1.0000 0.61513  0.88487  0.17051  Biso   1.000  C
  C246     1.0000 0.61513  0.11513  0.17051  Biso   1.000  C
  C247     1.0000 0.38487  0.11513  0.17051  Biso   1.000  C
  C248     1.0000 0.38487  0.88487  0.17051  Biso   1.000  C
  C249     1.0000 0.82949  0.11513  0.61513  Biso   1.000  C
  C250     1.0000 0.38487  0.32949  0.61513  Biso   1.000  C
  C251     1.0000 0.17051  0.88487  0.61513  Biso   1.000  C
  C252     1.0000 0.61513  0.67051  0.61513  Biso   1.000  C
  C253     1.0000 0.82949  0.88487  0.38487  Biso   1.000  C
  C254     1.0000 0.61513  0.32949  0.38487  Biso   1.000  C
  C255     1.0000 0.17051  0.11513  0.38487  Biso   1.000  C
  C256     1.0000 0.38487  0.67051  0.38487  Biso   1.000  C
  C257     1.0000 0.61513  0.32949  0.61513  Biso   1.000  C
  C258     1.0000 0.17051  0.88487  0.38487  Biso   1.000  C
  C259     1.0000 0.17051  0.11513  0.61513  Biso   1.000  C
  C260     1.0000 0.82949  0.11513  0.38487  Biso   1.000  C
  C261     1.0000 0.82949  0.88487  0.61513  Biso   1.000  C
  C262     1.0000 0.61513  0.67051  0.38487  Biso   1.000  C
  C263     1.0000 0.38487  0.67051  0.61513  Biso   1.000  C
  C264     1.0000 0.38487  0.32949  0.38487  Biso   1.000  C
  C265     1.0000 0.61513  0.61513  0.32949  Biso   1.000  C
  C266     1.0000 0.38487  0.61513  0.32949  Biso   1.000  C
  C267     1.0000 0.38487  0.38487  0.32949  Biso   1.000  C
  C268     1.0000 0.61513  0.38487  0.32949  Biso   1.000  C
  C269     1.0000 0.61513  0.38487  0.67051  Biso   1.000  C
  C270     1.0000 0.61513  0.61513  0.67051  Biso   1.000  C
  C271     1.0000 0.38487  0.61513  0.67051  Biso   1.000  C
  C272     1.0000 0.38487  0.38487  0.67051  Biso   1.000  C
  C273     1.0000 0.82949  0.61513  0.11513  Biso   1.000  C
  C274     1.0000 0.38487  0.82949  0.11513  Biso   1.000  C
  C275     1.0000 0.17051  0.38487  0.11513  Biso   1.000  C
  C276     1.0000 0.61513  0.17051  0.11513  Biso   1.000  C
  C277     1.0000 0.82949  0.38487  0.88487  Biso   1.000  C
  C278     1.0000 0.61513  0.82949  0.88487  Biso   1.000  C
  C279     1.0000 0.17051  0.61513  0.88487  Biso   1.000  C
  C280     1.0000 0.38487  0.17051  0.88487  Biso   1.000  C
  C281     1.0000 0.61513  0.82949  0.11513  Biso   1.000  C
  C282     1.0000 0.17051  0.38487  0.88487  Biso   1.000  C
  C283     1.0000 0.17051  0.61513  0.11513  Biso   1.000  C
  C284     1.0000 0.82949  0.61513  0.88487  Biso   1.000  C
  C285     1.0000 0.82949  0.38487  0.11513  Biso   1.000  C
  C286     1.0000 0.61513  0.17051  0.88487  Biso   1.000  C
  C287     1.0000 0.38487  0.17051  0.11513  Biso   1.000  C
  C288     1.0000 0.38487  0.82949  0.88487  Biso   1.000  C
  H1       1.0000 0.10270  0.10270  0.30500  Biso   1.000  H
  H2       1.0000 0.89730  0.10270  0.30500  Biso   1.000  H
  H3       1.0000 0.89730  0.89730  0.30500  Biso   1.000  H
  H4       1.0000 0.10270  0.89730  0.30500  Biso   1.000  H
  H5       1.0000 0.10270  0.89730  0.69500  Biso   1.000  H
  H6       1.0000 0.10270  0.10270  0.69500  Biso   1.000  H
  H7       1.0000 0.89730  0.10270  0.69500  Biso   1.000  H
  H8       1.0000 0.89730  0.89730  0.69500  Biso   1.000  H
  H9       1.0000 0.30500  0.10270  0.10270  Biso   1.000  H
  H10      1.0000 0.89730  0.30500  0.10270  Biso   1.000  H
  H11      1.0000 0.69500  0.89730  0.10270  Biso   1.000  H
  H12      1.0000 0.10270  0.69500  0.10270  Biso   1.000  H
  H13      1.0000 0.30500  0.89730  0.89730  Biso   1.000  H
  H14      1.0000 0.10270  0.30500  0.89730  Biso   1.000  H
  H15      1.0000 0.69500  0.10270  0.89730  Biso   1.000  H
  H16      1.0000 0.89730  0.69500  0.89730  Biso   1.000  H
  H17      1.0000 0.10270  0.30500  0.10270  Biso   1.000  H
  H18      1.0000 0.69500  0.89730  0.89730  Biso   1.000  H
  H19      1.0000 0.69500  0.10270  0.10270  Biso   1.000  H
  H20      1.0000 0.30500  0.10270  0.89730  Biso   1.000  H
  H21      1.0000 0.30500  0.89730  0.10270  Biso   1.000  H
  H22      1.0000 0.10270  0.69500  0.89730  Biso   1.000  H
  H23      1.0000 0.89730  0.69500  0.10270  Biso   1.000  H
  H24      1.0000 0.89730  0.30500  0.89730  Biso   1.000  H
  H25      1.0000 0.10270  0.60270  0.80500  Biso   1.000  H
  H26      1.0000 0.89730  0.60270  0.80500  Biso   1.000  H
  H27      1.0000 0.89730  0.39730  0.80500  Biso   1.000  H
  H28      1.0000 0.10270  0.39730  0.80500  Biso   1.000  H
  H29      1.0000 0.10270  0.39730  0.19500  Biso   1.000  H
  H30      1.0000 0.10270  0.60270  0.19500  Biso   1.000  H
  H31      1.0000 0.89730  0.60270  0.19500  Biso   1.000  H
  H32      1.0000 0.89730  0.39730  0.19500  Biso   1.000  H
  H33      1.0000 0.30500  0.60270  0.60270  Biso   1.000  H
  H34      1.0000 0.89730  0.80500  0.60270  Biso   1.000  H
  H35      1.0000 0.69500  0.39730  0.60270  Biso   1.000  H
  H36      1.0000 0.10270  0.19500  0.60270  Biso   1.000  H
  H37      1.0000 0.30500  0.39730  0.39730  Biso   1.000  H
  H38      1.0000 0.10270  0.80500  0.39730  Biso   1.000  H
  H39      1.0000 0.69500  0.60270  0.39730  Biso   1.000  H
  H40      1.0000 0.89730  0.19500  0.39730  Biso   1.000  H
  H41      1.0000 0.10270  0.80500  0.60270  Biso   1.000  H
  H42      1.0000 0.69500  0.39730  0.39730  Biso   1.000  H
  H43      1.0000 0.69500  0.60270  0.60270  Biso   1.000  H
  H44      1.0000 0.30500  0.60270  0.39730  Biso   1.000  H
  H45      1.0000 0.30500  0.39730  0.60270  Biso   1.000  H
  H46      1.0000 0.10270  0.19500  0.39730  Biso   1.000  H
  H47      1.0000 0.89730  0.19500  0.60270  Biso   1.000  H
  H48      1.0000 0.89730  0.80500  0.39730  Biso   1.000  H
  H49      1.0000 0.60270  0.10270  0.80500  Biso   1.000  H
  H50      1.0000 0.39730  0.10270  0.80500  Biso   1.000  H
  H51      1.0000 0.39730  0.89730  0.80500  Biso   1.000  H
  H52      1.0000 0.60270  0.89730  0.80500  Biso   1.000  H
  H53      1.0000 0.60270  0.89730  0.19500  Biso   1.000  H
  H54      1.0000 0.60270  0.10270  0.19500  Biso   1.000  H
  H55      1.0000 0.39730  0.10270  0.19500  Biso   1.000  H
  H56      1.0000 0.39730  0.89730  0.19500  Biso   1.000  H
  H57      1.0000 0.80500  0.10270  0.60270  Biso   1.000  H
  H58      1.0000 0.39730  0.30500  0.60270  Biso   1.000  H
  H59      1.0000 0.19500  0.89730  0.60270  Biso   1.000  H
  H60      1.0000 0.60270  0.69500  0.60270  Biso   1.000  H
  H61      1.0000 0.80500  0.89730  0.39730  Biso   1.000  H
  H62      1.0000 0.60270  0.30500  0.39730  Biso   1.000  H
  H63      1.0000 0.19500  0.10270  0.39730  Biso   1.000  H
  H64      1.0000 0.39730  0.69500  0.39730  Biso   1.000  H
  H65      1.0000 0.60270  0.30500  0.60270  Biso   1.000  H
  H66      1.0000 0.19500  0.89730  0.39730  Biso   1.000  H
  H67      1.0000 0.19500  0.10270  0.60270  Biso   1.000  H
  H68      1.0000 0.80500  0.10270  0.39730  Biso   1.000  H
  H69      1.0000 0.80500  0.89730  0.60270  Biso   1.000  H
  H70      1.0000 0.60270  0.69500  0.39730  Biso   1.000  H
  H71      1.0000 0.39730  0.69500  0.60270  Biso   1.000  H
  H72      1.0000 0.39730  0.30500  0.39730  Biso   1.000  H
  H73      1.0000 0.60270  0.60270  0.30500  Biso   1.000  H
  H74      1.0000 0.39730  0.60270  0.30500  Biso   1.000  H
  H75      1.0000 0.39730  0.39730  0.30500  Biso   1.000  H
  H76      1.0000 0.60270  0.39730  0.30500  Biso   1.000  H
  H77      1.0000 0.60270  0.39730  0.69500  Biso   1.000  H
  H78      1.0000 0.60270  0.60270  0.69500  Biso   1.000  H
  H79      1.0000 0.39730  0.60270  0.69500  Biso   1.000  H
  H80      1.0000 0.39730  0.39730  0.69500  Biso   1.000  H
  H81      1.0000 0.80500  0.60270  0.10270  Biso   1.000  H
  H82      1.0000 0.39730  0.80500  0.10270  Biso   1.000  H
  H83      1.0000 0.19500  0.39730  0.10270  Biso   1.000  H
  H84      1.0000 0.60270  0.19500  0.10270  Biso   1.000  H
  H85      1.0000 0.80500  0.39730  0.89730  Biso   1.000  H
  H86      1.0000 0.60270  0.80500  0.89730  Biso   1.000  H
  H87      1.0000 0.19500  0.60270  0.89730  Biso   1.000  H
  H88      1.0000 0.39730  0.19500  0.89730  Biso   1.000  H
  H89      1.0000 0.60270  0.80500  0.10270  Biso   1.000  H
  H90      1.0000 0.19500  0.39730  0.89730  Biso   1.000  H
  H91      1.0000 0.19500  0.60270  0.10270  Biso   1.000  H
  H92      1.0000 0.80500  0.60270  0.89730  Biso   1.000  H
  H93      1.0000 0.80500  0.39730  0.10270  Biso   1.000  H
  H94      1.0000 0.60270  0.19500  0.89730  Biso   1.000  H
  H95      1.0000 0.39730  0.19500  0.10270  Biso   1.000  H
  H96      1.0000 0.39730  0.80500  0.89730  Biso   1.000  H
  C289     1.0000 0.17321  0.94126  0.17321  Biso   1.000  C
  C290     1.0000 0.05874  0.17321  0.17321  Biso   1.000  C
  C291     1.0000 0.82679  0.05874  0.17321  Biso   1.000  C
  C292     1.0000 0.94126  0.82679  0.17321  Biso   1.000  C
  C293     1.0000 0.17321  0.05874  0.82679  Biso   1.000  C
  C294     1.0000 0.94126  0.17321  0.82679  Biso   1.000  C
  C295     1.0000 0.82679  0.94126  0.82679  Biso   1.000  C
  C296     1.0000 0.05874  0.82679  0.82679  Biso   1.000  C
  C297     1.0000 0.17321  0.17321  0.94126  Biso   1.000  C
  C298     1.0000 0.82679  0.17321  0.94126  Biso   1.000  C
  C299     1.0000 0.82679  0.82679  0.94126  Biso   1.000  C
  C300     1.0000 0.17321  0.82679  0.94126  Biso   1.000  C
  C301     1.0000 0.17321  0.82679  0.05874  Biso   1.000  C
  C302     1.0000 0.17321  0.17321  0.05874  Biso   1.000  C
  C303     1.0000 0.82679  0.17321  0.05874  Biso   1.000  C
  C304     1.0000 0.82679  0.82679  0.05874  Biso   1.000  C
  C305     1.0000 0.94126  0.17321  0.17321  Biso   1.000  C
  C306     1.0000 0.82679  0.05874  0.82679  Biso   1.000  C
  C307     1.0000 0.82679  0.94126  0.17321  Biso   1.000  C
  C308     1.0000 0.17321  0.94126  0.82679  Biso   1.000  C
  C309     1.0000 0.17321  0.05874  0.17321  Biso   1.000  C
  C310     1.0000 0.94126  0.82679  0.82679  Biso   1.000  C
  C311     1.0000 0.05874  0.82679  0.17321  Biso   1.000  C
  C312     1.0000 0.05874  0.17321  0.82679  Biso   1.000  C
  C313     1.0000 0.17321  0.44126  0.67321  Biso   1.000  C
  C314     1.0000 0.05874  0.67321  0.67321  Biso   1.000  C
  C315     1.0000 0.82679  0.55874  0.67321  Biso   1.000  C
  C316     1.0000 0.94126  0.32679  0.67321  Biso   1.000  C
  C317     1.0000 0.17321  0.55874  0.32679  Biso   1.000  C
  C318     1.0000 0.94126  0.67321  0.32679  Biso   1.000  C
  C319     1.0000 0.82679  0.44126  0.32679  Biso   1.000  C
  C320     1.0000 0.05874  0.32679  0.32679  Biso   1.000  C
  C321     1.0000 0.17321  0.67321  0.44126  Biso   1.000  C
  C322     1.0000 0.82679  0.67321  0.44126  Biso   1.000  C
  C323     1.0000 0.82679  0.32679  0.44126  Biso   1.000  C
  C324     1.0000 0.17321  0.32679  0.44126  Biso   1.000  C
  C325     1.0000 0.17321  0.32679  0.55874  Biso   1.000  C
  C326     1.0000 0.17321  0.67321  0.55874  Biso   1.000  C
  C327     1.0000 0.82679  0.67321  0.55874  Biso   1.000  C
  C328     1.0000 0.82679  0.32679  0.55874  Biso   1.000  C
  C329     1.0000 0.94126  0.67321  0.67321  Biso   1.000  C
  C330     1.0000 0.82679  0.55874  0.32679  Biso   1.000  C
  C331     1.0000 0.82679  0.44126  0.67321  Biso   1.000  C
  C332     1.0000 0.17321  0.44126  0.32679  Biso   1.000  C
  C333     1.0000 0.17321  0.55874  0.67321  Biso   1.000  C
  C334     1.0000 0.94126  0.32679  0.32679  Biso   1.000  C
  C335     1.0000 0.05874  0.32679  0.67321  Biso   1.000  C
  C336     1.0000 0.05874  0.67321  0.32679  Biso   1.000  C
  C337     1.0000 0.67321  0.94126  0.67321  Biso   1.000  C
  C338     1.0000 0.55874  0.17321  0.67321  Biso   1.000  C
  C339     1.0000 0.32679  0.05874  0.67321  Biso   1.000  C
  C340     1.0000 0.44126  0.82679  0.67321  Biso   1.000  C
  C341     1.0000 0.67321  0.05874  0.32679  Biso   1.000  C
  C342     1.0000 0.44126  0.17321  0.32679  Biso   1.000  C
  C343     1.0000 0.32679  0.94126  0.32679  Biso   1.000  C
  C344     1.0000 0.55874  0.82679  0.32679  Biso   1.000  C
  C345     1.0000 0.67321  0.17321  0.44126  Biso   1.000  C
  C346     1.0000 0.32679  0.17321  0.44126  Biso   1.000  C
  C347     1.0000 0.32679  0.82679  0.44126  Biso   1.000  C
  C348     1.0000 0.67321  0.82679  0.44126  Biso   1.000  C
  C349     1.0000 0.67321  0.82679  0.55874  Biso   1.000  C
  C350     1.0000 0.67321  0.17321  0.55874  Biso   1.000  C
  C351     1.0000 0.32679  0.17321  0.55874  Biso   1.000  C
  C352     1.0000 0.32679  0.82679  0.55874  Biso   1.000  C
  C353     1.0000 0.44126  0.17321  0.67321  Biso   1.000  C
  C354     1.0000 0.32679  0.05874  0.32679  Biso   1.000  C
  C355     1.0000 0.32679  0.94126  0.67321  Biso   1.000  C
  C356     1.0000 0.67321  0.94126  0.32679  Biso   1.000  C
  C357     1.0000 0.67321  0.05874  0.67321  Biso   1.000  C
  C358     1.0000 0.44126  0.82679  0.32679  Biso   1.000  C
  C359     1.0000 0.55874  0.82679  0.67321  Biso   1.000  C
  C360     1.0000 0.55874  0.17321  0.32679  Biso   1.000  C
  C361     1.0000 0.67321  0.44126  0.17321  Biso   1.000  C
  C362     1.0000 0.55874  0.67321  0.17321  Biso   1.000  C
  C363     1.0000 0.32679  0.55874  0.17321  Biso   1.000  C
  C364     1.0000 0.44126  0.32679  0.17321  Biso   1.000  C
  C365     1.0000 0.67321  0.55874  0.82679  Biso   1.000  C
  C366     1.0000 0.44126  0.67321  0.82679  Biso   1.000  C
  C367     1.0000 0.32679  0.44126  0.82679  Biso   1.000  C
  C368     1.0000 0.55874  0.32679  0.82679  Biso   1.000  C
  C369     1.0000 0.67321  0.67321  0.94126  Biso   1.000  C
  C370     1.0000 0.32679  0.67321  0.94126  Biso   1.000  C
  C371     1.0000 0.32679  0.32679  0.94126  Biso   1.000  C
  C372     1.0000 0.67321  0.32679  0.94126  Biso   1.000  C
  C373     1.0000 0.67321  0.32679  0.05874  Biso   1.000  C
  C374     1.0000 0.67321  0.67321  0.05874  Biso   1.000  C
  C375     1.0000 0.32679  0.67321  0.05874  Biso   1.000  C
  C376     1.0000 0.32679  0.32679  0.05874  Biso   1.000  C
  C377     1.0000 0.44126  0.67321  0.17321  Biso   1.000  C
  C378     1.0000 0.32679  0.55874  0.82679  Biso   1.000  C
  C379     1.0000 0.32679  0.44126  0.17321  Biso   1.000  C
  C380     1.0000 0.67321  0.44126  0.82679  Biso   1.000  C
  C381     1.0000 0.67321  0.55874  0.17321  Biso   1.000  C
  C382     1.0000 0.44126  0.32679  0.82679  Biso   1.000  C
  C383     1.0000 0.55874  0.32679  0.17321  Biso   1.000  C
  C384     1.0000 0.55874  0.67321  0.82679  Biso   1.000  C
  C385     1.0000 0.15185  0.90340  0.15185  Biso   1.000  C
  C386     1.0000 0.09660  0.15185  0.15185  Biso   1.000  C
  C387     1.0000 0.84815  0.09660  0.15185  Biso   1.000  C
  C388     1.0000 0.90340  0.84815  0.15185  Biso   1.000  C
  C389     1.0000 0.15185  0.09660  0.84815  Biso   1.000  C
  C390     1.0000 0.90340  0.15185  0.84815  Biso   1.000  C
  C391     1.0000 0.84815  0.90340  0.84815  Biso   1.000  C
  C392     1.0000 0.09660  0.84815  0.84815  Biso   1.000  C
  C393     1.0000 0.15185  0.15185  0.90340  Biso   1.000  C
  C394     1.0000 0.84815  0.15185  0.90340  Biso   1.000  C
  C395     1.0000 0.84815  0.84815  0.90340  Biso   1.000  C
  C396     1.0000 0.15185  0.84815  0.90340  Biso   1.000  C
  C397     1.0000 0.15185  0.84815  0.09660  Biso   1.000  C
  C398     1.0000 0.15185  0.15185  0.09660  Biso   1.000  C
  C399     1.0000 0.84815  0.15185  0.09660  Biso   1.000  C
  C400     1.0000 0.84815  0.84815  0.09660  Biso   1.000  C
  C401     1.0000 0.90340  0.15185  0.15185  Biso   1.000  C
  C402     1.0000 0.84815  0.09660  0.84815  Biso   1.000  C
  C403     1.0000 0.84815  0.90340  0.15185  Biso   1.000  C
  C404     1.0000 0.15185  0.90340  0.84815  Biso   1.000  C
  C405     1.0000 0.15185  0.09660  0.15185  Biso   1.000  C
  C406     1.0000 0.90340  0.84815  0.84815  Biso   1.000  C
  C407     1.0000 0.09660  0.84815  0.15185  Biso   1.000  C
  C408     1.0000 0.09660  0.15185  0.84815  Biso   1.000  C
  C409     1.0000 0.15185  0.40340  0.65185  Biso   1.000  C
  C410     1.0000 0.09660  0.65185  0.65185  Biso   1.000  C
  C411     1.0000 0.84815  0.59660  0.65185  Biso   1.000  C
  C412     1.0000 0.90340  0.34815  0.65185  Biso   1.000  C
  C413     1.0000 0.15185  0.59660  0.34815  Biso   1.000  C
  C414     1.0000 0.90340  0.65185  0.34815  Biso   1.000  C
  C415     1.0000 0.84815  0.40340  0.34815  Biso   1.000  C
  C416     1.0000 0.09660  0.34815  0.34815  Biso   1.000  C
  C417     1.0000 0.15185  0.65185  0.40340  Biso   1.000  C
  C418     1.0000 0.84815  0.65185  0.40340  Biso   1.000  C
  C419     1.0000 0.84815  0.34815  0.40340  Biso   1.000  C
  C420     1.0000 0.15185  0.34815  0.40340  Biso   1.000  C
  C421     1.0000 0.15185  0.34815  0.59660  Biso   1.000  C
  C422     1.0000 0.15185  0.65185  0.59660  Biso   1.000  C
  C423     1.0000 0.84815  0.65185  0.59660  Biso   1.000  C
  C424     1.0000 0.84815  0.34815  0.59660  Biso   1.000  C
  C425     1.0000 0.90340  0.65185  0.65185  Biso   1.000  C
  C426     1.0000 0.84815  0.59660  0.34815  Biso   1.000  C
  C427     1.0000 0.84815  0.40340  0.65185  Biso   1.000  C
  C428     1.0000 0.15185  0.40340  0.34815  Biso   1.000  C
  C429     1.0000 0.15185  0.59660  0.65185  Biso   1.000  C
  C430     1.0000 0.90340  0.34815  0.34815  Biso   1.000  C
  C431     1.0000 0.09660  0.34815  0.65185  Biso   1.000  C
  C432     1.0000 0.09660  0.65185  0.34815  Biso   1.000  C
  C433     1.0000 0.65185  0.90340  0.65185  Biso   1.000  C
  C434     1.0000 0.59660  0.15185  0.65185  Biso   1.000  C
  C435     1.0000 0.34815  0.09660  0.65185  Biso   1.000  C
  C436     1.0000 0.40340  0.84815  0.65185  Biso   1.000  C
  C437     1.0000 0.65185  0.09660  0.34815  Biso   1.000  C
  C438     1.0000 0.40340  0.15185  0.34815  Biso   1.000  C
  C439     1.0000 0.34815  0.90340  0.34815  Biso   1.000  C
  C440     1.0000 0.59660  0.84815  0.34815  Biso   1.000  C
  C441     1.0000 0.65185  0.15185  0.40340  Biso   1.000  C
  C442     1.0000 0.34815  0.15185  0.40340  Biso   1.000  C
  C443     1.0000 0.34815  0.84815  0.40340  Biso   1.000  C
  C444     1.0000 0.65185  0.84815  0.40340  Biso   1.000  C
  C445     1.0000 0.65185  0.84815  0.59660  Biso   1.000  C
  C446     1.0000 0.65185  0.15185  0.59660  Biso   1.000  C
  C447     1.0000 0.34815  0.15185  0.59660  Biso   1.000  C
  C448     1.0000 0.34815  0.84815  0.59660  Biso   1.000  C
  C449     1.0000 0.40340  0.15185  0.65185  Biso   1.000  C
  C450     1.0000 0.34815  0.09660  0.34815  Biso   1.000  C
  C451     1.0000 0.34815  0.90340  0.65185  Biso   1.000  C
  C452     1.0000 0.65185  0.90340  0.34815  Biso   1.000  C
  C453     1.0000 0.65185  0.09660  0.65185  Biso   1.000  C
  C454     1.0000 0.40340  0.84815  0.34815  Biso   1.000  C
  C455     1.0000 0.59660  0.84815  0.65185  Biso   1.000  C
  C456     1.0000 0.59660  0.15185  0.34815  Biso   1.000  C
  C457     1.0000 0.65185  0.40340  0.15185  Biso   1.000  C
  C458     1.0000 0.59660  0.65185  0.15185  Biso   1.000  C
  C459     1.0000 0.34815  0.59660  0.15185  Biso   1.000  C
  C460     1.0000 0.40340  0.34815  0.15185  Biso   1.000  C
  C461     1.0000 0.65185  0.59660  0.84815  Biso   1.000  C
  C462     1.0000 0.40340  0.65185  0.84815  Biso   1.000  C
  C463     1.0000 0.34815  0.40340  0.84815  Biso   1.000  C
  C464     1.0000 0.59660  0.34815  0.84815  Biso   1.000  C
  C465     1.0000 0.65185  0.65185  0.90340  Biso   1.000  C
  C466     1.0000 0.34815  0.65185  0.90340  Biso   1.000  C
  C467     1.0000 0.34815  0.34815  0.90340  Biso   1.000  C
  C468     1.0000 0.65185  0.34815  0.90340  Biso   1.000  C
  C469     1.0000 0.65185  0.34815  0.09660  Biso   1.000  C
  C470     1.0000 0.65185  0.65185  0.09660  Biso   1.000  C
  C471     1.0000 0.34815  0.65185  0.09660  Biso   1.000  C
  C472     1.0000 0.34815  0.34815  0.09660  Biso   1.000  C
  C473     1.0000 0.40340  0.65185  0.15185  Biso   1.000  C
  C474     1.0000 0.34815  0.59660  0.84815  Biso   1.000  C
  C475     1.0000 0.34815  0.40340  0.15185  Biso   1.000  C
  C476     1.0000 0.65185  0.40340  0.84815  Biso   1.000  C
  C477     1.0000 0.65185  0.59660  0.15185  Biso   1.000  C
  C478     1.0000 0.40340  0.34815  0.84815  Biso   1.000  C
  C479     1.0000 0.59660  0.34815  0.15185  Biso   1.000  C
  C480     1.0000 0.59660  0.65185  0.84815  Biso   1.000  C
  C481     1.0000 0.11503  0.88497  0.17040  Biso   1.000  C
  C482     1.0000 0.11503  0.11503  0.17040  Biso   1.000  C
  C483     1.0000 0.88497  0.11503  0.17040  Biso   1.000  C
  C484     1.0000 0.88497  0.88497  0.17040  Biso   1.000  C
  C485     1.0000 0.11503  0.11503  0.82960  Biso   1.000  C
  C486     1.0000 0.88497  0.11503  0.82960  Biso   1.000  C
  C487     1.0000 0.88497  0.88497  0.82960  Biso   1.000  C
  C488     1.0000 0.11503  0.88497  0.82960  Biso   1.000  C
  C489     1.0000 0.17040  0.11503  0.88497  Biso   1.000  C
  C490     1.0000 0.88497  0.17040  0.88497  Biso   1.000  C
  C491     1.0000 0.82960  0.88497  0.88497  Biso   1.000  C
  C492     1.0000 0.11503  0.82960  0.88497  Biso   1.000  C
  C493     1.0000 0.17040  0.88497  0.11503  Biso   1.000  C
  C494     1.0000 0.11503  0.17040  0.11503  Biso   1.000  C
  C495     1.0000 0.82960  0.11503  0.11503  Biso   1.000  C
  C496     1.0000 0.88497  0.82960  0.11503  Biso   1.000  C
  C497     1.0000 0.88497  0.17040  0.11503  Biso   1.000  C
  C498     1.0000 0.82960  0.11503  0.88497  Biso   1.000  C
  C499     1.0000 0.82960  0.88497  0.11503  Biso   1.000  C
  C500     1.0000 0.17040  0.88497  0.88497  Biso   1.000  C
  C501     1.0000 0.17040  0.11503  0.11503  Biso   1.000  C
  C502     1.0000 0.88497  0.82960  0.88497  Biso   1.000  C
  C503     1.0000 0.11503  0.82960  0.11503  Biso   1.000  C
  C504     1.0000 0.11503  0.17040  0.88497  Biso   1.000  C
  C505     1.0000 0.11503  0.38497  0.67040  Biso   1.000  C
  C506     1.0000 0.11503  0.61503  0.67040  Biso   1.000  C
  C507     1.0000 0.88497  0.61503  0.67040  Biso   1.000  C
  C508     1.0000 0.88497  0.38497  0.67040  Biso   1.000  C
  C509     1.0000 0.11503  0.61503  0.32960  Biso   1.000  C
  C510     1.0000 0.88497  0.61503  0.32960  Biso   1.000  C
  C511     1.0000 0.88497  0.38497  0.32960  Biso   1.000  C
  C512     1.0000 0.11503  0.38497  0.32960  Biso   1.000  C
  C513     1.0000 0.17040  0.61503  0.38497  Biso   1.000  C
  C514     1.0000 0.88497  0.67040  0.38497  Biso   1.000  C
  C515     1.0000 0.82960  0.38497  0.38497  Biso   1.000  C
  C516     1.0000 0.11503  0.32960  0.38497  Biso   1.000  C
  C517     1.0000 0.17040  0.38497  0.61503  Biso   1.000  C
  C518     1.0000 0.11503  0.67040  0.61503  Biso   1.000  C
  C519     1.0000 0.82960  0.61503  0.61503  Biso   1.000  C
  C520     1.0000 0.88497  0.32960  0.61503  Biso   1.000  C
  C521     1.0000 0.88497  0.67040  0.61503  Biso   1.000  C
  C522     1.0000 0.82960  0.61503  0.38497  Biso   1.000  C
  C523     1.0000 0.82960  0.38497  0.61503  Biso   1.000  C
  C524     1.0000 0.17040  0.38497  0.38497  Biso   1.000  C
  C525     1.0000 0.17040  0.61503  0.61503  Biso   1.000  C
  C526     1.0000 0.88497  0.32960  0.38497  Biso   1.000  C
  C527     1.0000 0.11503  0.32960  0.61503  Biso   1.000  C
  C528     1.0000 0.11503  0.67040  0.38497  Biso   1.000  C
  C529     1.0000 0.61503  0.88497  0.67040  Biso   1.000  C
  C530     1.0000 0.61503  0.11503  0.67040  Biso   1.000  C
  C531     1.0000 0.38497  0.11503  0.67040  Biso   1.000  C
  C532     1.0000 0.38497  0.88497  0.67040  Biso   1.000  C
  C533     1.0000 0.61503  0.11503  0.32960  Biso   1.000  C
  C534     1.0000 0.38497  0.11503  0.32960  Biso   1.000  C
  C535     1.0000 0.38497  0.88497  0.32960  Biso   1.000  C
  C536     1.0000 0.61503  0.88497  0.32960  Biso   1.000  C
  C537     1.0000 0.67040  0.11503  0.38497  Biso   1.000  C
  C538     1.0000 0.38497  0.17040  0.38497  Biso   1.000  C
  C539     1.0000 0.32960  0.88497  0.38497  Biso   1.000  C
  C540     1.0000 0.61503  0.82960  0.38497  Biso   1.000  C
  C541     1.0000 0.67040  0.88497  0.61503  Biso   1.000  C
  C542     1.0000 0.61503  0.17040  0.61503  Biso   1.000  C
  C543     1.0000 0.32960  0.11503  0.61503  Biso   1.000  C
  C544     1.0000 0.38497  0.82960  0.61503  Biso   1.000  C
  C545     1.0000 0.38497  0.17040  0.61503  Biso   1.000  C
  C546     1.0000 0.32960  0.11503  0.38497  Biso   1.000  C
  C547     1.0000 0.32960  0.88497  0.61503  Biso   1.000  C
  C548     1.0000 0.67040  0.88497  0.38497  Biso   1.000  C
  C549     1.0000 0.67040  0.11503  0.61503  Biso   1.000  C
  C550     1.0000 0.38497  0.82960  0.38497  Biso   1.000  C
  C551     1.0000 0.61503  0.82960  0.61503  Biso   1.000  C
  C552     1.0000 0.61503  0.17040  0.38497  Biso   1.000  C
  C553     1.0000 0.61503  0.38497  0.17040  Biso   1.000  C
  C554     1.0000 0.61503  0.61503  0.17040  Biso   1.000  C
  C555     1.0000 0.38497  0.61503  0.17040  Biso   1.000  C
  C556     1.0000 0.38497  0.38497  0.17040  Biso   1.000  C
  C557     1.0000 0.61503  0.61503  0.82960  Biso   1.000  C
  C558     1.0000 0.38497  0.61503  0.82960  Biso   1.000  C
  C559     1.0000 0.38497  0.38497  0.82960  Biso   1.000  C
  C560     1.0000 0.61503  0.38497  0.82960  Biso   1.000  C
  C561     1.0000 0.67040  0.61503  0.88497  Biso   1.000  C
  C562     1.0000 0.38497  0.67040  0.88497  Biso   1.000  C
  C563     1.0000 0.32960  0.38497  0.88497  Biso   1.000  C
  C564     1.0000 0.61503  0.32960  0.88497  Biso   1.000  C
  C565     1.0000 0.67040  0.38497  0.11503  Biso   1.000  C
  C566     1.0000 0.61503  0.67040  0.11503  Biso   1.000  C
  C567     1.0000 0.32960  0.61503  0.11503  Biso   1.000  C
  C568     1.0000 0.38497  0.32960  0.11503  Biso   1.000  C
  C569     1.0000 0.38497  0.67040  0.11503  Biso   1.000  C
  C570     1.0000 0.32960  0.61503  0.88497  Biso   1.000  C
  C571     1.0000 0.32960  0.38497  0.11503  Biso   1.000  C
  C572     1.0000 0.67040  0.38497  0.88497  Biso   1.000  C
  C573     1.0000 0.67040  0.61503  0.11503  Biso   1.000  C
  C574     1.0000 0.38497  0.32960  0.88497  Biso   1.000  C
  C575     1.0000 0.61503  0.32960  0.11503  Biso   1.000  C
  C576     1.0000 0.61503  0.67040  0.88497  Biso   1.000  C
  H97      1.0000 0.10290  0.89710  0.19500  Biso   1.000  H
  H98      1.0000 0.10290  0.10290  0.19500  Biso   1.000  H
  H99      1.0000 0.89710  0.10290  0.19500  Biso   1.000  H
  H100     1.0000 0.89710  0.89710  0.19500  Biso   1.000  H
  H101     1.0000 0.10290  0.10290  0.80500  Biso   1.000  H
  H102     1.0000 0.89710  0.10290  0.80500  Biso   1.000  H
  H103     1.0000 0.89710  0.89710  0.80500  Biso   1.000  H
  H104     1.0000 0.10290  0.89710  0.80500  Biso   1.000  H
  H105     1.0000 0.19500  0.10290  0.89710  Biso   1.000  H
  H106     1.0000 0.89710  0.19500  0.89710  Biso   1.000  H
  H107     1.0000 0.80500  0.89710  0.89710  Biso   1.000  H
  H108     1.0000 0.10290  0.80500  0.89710  Biso   1.000  H
  H109     1.0000 0.19500  0.89710  0.10290  Biso   1.000  H
  H110     1.0000 0.10290  0.19500  0.10290  Biso   1.000  H
  H111     1.0000 0.80500  0.10290  0.10290  Biso   1.000  H
  H112     1.0000 0.89710  0.80500  0.10290  Biso   1.000  H
  H113     1.0000 0.89710  0.19500  0.10290  Biso   1.000  H
  H114     1.0000 0.80500  0.10290  0.89710  Biso   1.000  H
  H115     1.0000 0.80500  0.89710  0.10290  Biso   1.000  H
  H116     1.0000 0.19500  0.89710  0.89710  Biso   1.000  H
  H117     1.0000 0.19500  0.10290  0.10290  Biso   1.000  H
  H118     1.0000 0.89710  0.80500  0.89710  Biso   1.000  H
  H119     1.0000 0.10290  0.80500  0.10290  Biso   1.000  H
  H120     1.0000 0.10290  0.19500  0.89710  Biso   1.000  H
  H121     1.0000 0.10290  0.39710  0.69500  Biso   1.000  H
  H122     1.0000 0.10290  0.60290  0.69500  Biso   1.000  H
  H123     1.0000 0.89710  0.60290  0.69500  Biso   1.000  H
  H124     1.0000 0.89710  0.39710  0.69500  Biso   1.000  H
  H125     1.0000 0.10290  0.60290  0.30500  Biso   1.000  H
  H126     1.0000 0.89710  0.60290  0.30500  Biso   1.000  H
  H127     1.0000 0.89710  0.39710  0.30500  Biso   1.000  H
  H128     1.0000 0.10290  0.39710  0.30500  Biso   1.000  H
  H129     1.0000 0.19500  0.60290  0.39710  Biso   1.000  H
  H130     1.0000 0.89710  0.69500  0.39710  Biso   1.000  H
  H131     1.0000 0.80500  0.39710  0.39710  Biso   1.000  H
  H132     1.0000 0.10290  0.30500  0.39710  Biso   1.000  H
  H133     1.0000 0.19500  0.39710  0.60290  Biso   1.000  H
  H134     1.0000 0.10290  0.69500  0.60290  Biso   1.000  H
  H135     1.0000 0.80500  0.60290  0.60290  Biso   1.000  H
  H136     1.0000 0.89710  0.30500  0.60290  Biso   1.000  H
  H137     1.0000 0.89710  0.69500  0.60290  Biso   1.000  H
  H138     1.0000 0.80500  0.60290  0.39710  Biso   1.000  H
  H139     1.0000 0.80500  0.39710  0.60290  Biso   1.000  H
  H140     1.0000 0.19500  0.39710  0.39710  Biso   1.000  H
  H141     1.0000 0.19500  0.60290  0.60290  Biso   1.000  H
  H142     1.0000 0.89710  0.30500  0.39710  Biso   1.000  H
  H143     1.0000 0.10290  0.30500  0.60290  Biso   1.000  H
  H144     1.0000 0.10290  0.69500  0.39710  Biso   1.000  H
  H145     1.0000 0.60290  0.89710  0.69500  Biso   1.000  H
  H146     1.0000 0.60290  0.10290  0.69500  Biso   1.000  H
  H147     1.0000 0.39710  0.10290  0.69500  Biso   1.000  H
  H148     1.0000 0.39710  0.89710  0.69500  Biso   1.000  H
  H149     1.0000 0.60290  0.10290  0.30500  Biso   1.000  H
  H150     1.0000 0.39710  0.10290  0.30500  Biso   1.000  H
  H151     1.0000 0.39710  0.89710  0.30500  Biso   1.000  H
  H152     1.0000 0.60290  0.89710  0.30500  Biso   1.000  H
  H153     1.0000 0.69500  0.10290  0.39710  Biso   1.000  H
  H154     1.0000 0.39710  0.19500  0.39710  Biso   1.000  H
  H155     1.0000 0.30500  0.89710  0.39710  Biso   1.000  H
  H156     1.0000 0.60290  0.80500  0.39710  Biso   1.000  H
  H157     1.0000 0.69500  0.89710  0.60290  Biso   1.000  H
  H158     1.0000 0.60290  0.19500  0.60290  Biso   1.000  H
  H159     1.0000 0.30500  0.10290  0.60290  Biso   1.000  H
  H160     1.0000 0.39710  0.80500  0.60290  Biso   1.000  H
  H161     1.0000 0.39710  0.19500  0.60290  Biso   1.000  H
  H162     1.0000 0.30500  0.10290  0.39710  Biso   1.000  H
  H163     1.0000 0.30500  0.89710  0.60290  Biso   1.000  H
  H164     1.0000 0.69500  0.89710  0.39710  Biso   1.000  H
  H165     1.0000 0.69500  0.10290  0.60290  Biso   1.000  H
  H166     1.0000 0.39710  0.80500  0.39710  Biso   1.000  H
  H167     1.0000 0.60290  0.80500  0.60290  Biso   1.000  H
  H168     1.0000 0.60290  0.19500  0.39710  Biso   1.000  H
  H169     1.0000 0.60290  0.39710  0.19500  Biso   1.000  H
  H170     1.0000 0.60290  0.60290  0.19500  Biso   1.000  H
  H171     1.0000 0.39710  0.60290  0.19500  Biso   1.000  H
  H172     1.0000 0.39710  0.39710  0.19500  Biso   1.000  H
  H173     1.0000 0.60290  0.60290  0.80500  Biso   1.000  H
  H174     1.0000 0.39710  0.60290  0.80500  Biso   1.000  H
  H175     1.0000 0.39710  0.39710  0.80500  Biso   1.000  H
  H176     1.0000 0.60290  0.39710  0.80500  Biso   1.000  H
  H177     1.0000 0.69500  0.60290  0.89710  Biso   1.000  H
  H178     1.0000 0.39710  0.69500  0.89710  Biso   1.000  H
  H179     1.0000 0.30500  0.39710  0.89710  Biso   1.000  H
  H180     1.0000 0.60290  0.30500  0.89710  Biso   1.000  H
  H181     1.0000 0.69500  0.39710  0.10290  Biso   1.000  H
  H182     1.0000 0.60290  0.69500  0.10290  Biso   1.000  H
  H183     1.0000 0.30500  0.60290  0.10290  Biso   1.000  H
  H184     1.0000 0.39710  0.30500  0.10290  Biso   1.000  H
  H185     1.0000 0.39710  0.69500  0.10290  Biso   1.000  H
  H186     1.0000 0.30500  0.60290  0.89710  Biso   1.000  H
  H187     1.0000 0.30500  0.39710  0.10290  Biso   1.000  H
  H188     1.0000 0.69500  0.39710  0.89710  Biso   1.000  H
  H189     1.0000 0.69500  0.60290  0.10290  Biso   1.000  H
  H190     1.0000 0.39710  0.30500  0.89710  Biso   1.000  H
  H191     1.0000 0.60290  0.30500  0.10290  Biso   1.000  H
  H192     1.0000 0.60290  0.69500  0.89710  Biso   1.000  H
  N1       1.0000 0.22650  0.00000  0.00000  Biso   1.000  N
  N2       1.0000 0.00000  0.22650  0.00000  Biso   1.000  N
  N3       1.0000 0.77350  0.00000  0.00000  Biso   1.000  N
  N4       1.0000 0.00000  0.77350  0.00000  Biso   1.000  N
  N5       1.0000 0.00000  0.00000  0.22650  Biso   1.000  N
  N6       1.0000 0.00000  0.00000  0.77350  Biso   1.000  N
  N7       1.0000 0.22650  0.50000  0.50000  Biso   1.000  N
  N8       1.0000 0.00000  0.72650  0.50000  Biso   1.000  N
  N9       1.0000 0.77350  0.50000  0.50000  Biso   1.000  N
  N10      1.0000 0.00000  0.27350  0.50000  Biso   1.000  N
  N11      1.0000 0.00000  0.50000  0.72650  Biso   1.000  N
  N12      1.0000 0.00000  0.50000  0.27350  Biso   1.000  N
  N13      1.0000 0.72650  0.00000  0.50000  Biso   1.000  N
  N14      1.0000 0.50000  0.22650  0.50000  Biso   1.000  N
  N15      1.0000 0.27350  0.00000  0.50000  Biso   1.000  N
  N16      1.0000 0.50000  0.77350  0.50000  Biso   1.000  N
  N17      1.0000 0.50000  0.00000  0.72650  Biso   1.000  N
  N18      1.0000 0.50000  0.00000  0.27350  Biso   1.000  N
  N19      1.0000 0.72650  0.50000  0.00000  Biso   1.000  N
  N20      1.0000 0.50000  0.72650  0.00000  Biso   1.000  N
  N21      1.0000 0.27350  0.50000  0.00000  Biso   1.000  N
  N22      1.0000 0.50000  0.27350  0.00000  Biso   1.000  N
  N23      1.0000 0.50000  0.50000  0.22650  Biso   1.000  N
  N24      1.0000 0.50000  0.50000  0.77350  Biso   1.000  N
  O385     1.0000 0.00000  0.00000  0.31070  Biso   1.000  O
  O386     1.0000 0.00000  0.00000  0.68930  Biso   1.000  O
  O387     1.0000 0.31070  0.00000  0.00000  Biso   1.000  O
  O388     1.0000 0.00000  0.31070  0.00000  Biso   1.000  O
  O389     1.0000 0.68930  0.00000  0.00000  Biso   1.000  O
  O390     1.0000 0.00000  0.68930  0.00000  Biso   1.000  O
  O391     1.0000 0.00000  0.50000  0.81070  Biso   1.000  O
  O392     1.0000 0.00000  0.50000  0.18930  Biso   1.000  O
  O393     1.0000 0.31070  0.50000  0.50000  Biso   1.000  O
  O394     1.0000 0.00000  0.81070  0.50000  Biso   1.000  O
  O395     1.0000 0.68930  0.50000  0.50000  Biso   1.000  O
  O396     1.0000 0.00000  0.18930  0.50000  Biso   1.000  O
  O397     1.0000 0.50000  0.00000  0.81070  Biso   1.000  O
  O398     1.0000 0.50000  0.00000  0.18930  Biso   1.000  O
  O399     1.0000 0.81070  0.00000  0.50000  Biso   1.000  O
  O400     1.0000 0.50000  0.31070  0.50000  Biso   1.000  O
  O401     1.0000 0.18930  0.00000  0.50000  Biso   1.000  O
  O402     1.0000 0.50000  0.68930  0.50000  Biso   1.000  O
  O403     1.0000 0.50000  0.50000  0.31070  Biso   1.000  O
  O404     1.0000 0.50000  0.50000  0.68930  Biso   1.000  O
  O405     1.0000 0.81070  0.50000  0.00000  Biso   1.000  O
  O406     1.0000 0.50000  0.81070  0.00000  Biso   1.000  O
  O407     1.0000 0.18930  0.50000  0.00000  Biso   1.000  O
  O408     1.0000 0.50000  0.18930  0.00000  Biso   1.000  O
  Si1      1.0000 0.00000  0.00000  0.00000  Biso   1.000  Si
  Si2      1.0000 0.00000  0.50000  0.50000  Biso   1.000  Si
  Si3      1.0000 0.50000  0.00000  0.50000  Biso   1.000  Si
  Si4      1.0000 0.50000  0.50000  0.00000  Biso   1.000  Si
  W1       1.0000 0.08088  0.00000  0.08088  Biso   1.000  W
  W2       1.0000 0.00000  0.08088  0.08088  Biso   1.000  W
  W3       1.0000 0.91912  0.00000  0.08088  Biso   1.000  W
  W4       1.0000 0.00000  0.91912  0.08088  Biso   1.000  W
  W5       1.0000 0.08088  0.00000  0.91912  Biso   1.000  W
  W6       1.0000 0.00000  0.08088  0.91912  Biso   1.000  W
  W7       1.0000 0.91912  0.00000  0.91912  Biso   1.000  W
  W8       1.0000 0.00000  0.91912  0.91912  Biso   1.000  W
  W9       1.0000 0.08088  0.08088  0.00000  Biso   1.000  W
  W10      1.0000 0.91912  0.08088  0.00000  Biso   1.000  W
  W11      1.0000 0.91912  0.91912  0.00000  Biso   1.000  W
  W12      1.0000 0.08088  0.91912  0.00000  Biso   1.000  W
  W13      1.0000 0.08088  0.50000  0.58088  Biso   1.000  W
  W14      1.0000 0.00000  0.58088  0.58088  Biso   1.000  W
  W15      1.0000 0.91912  0.50000  0.58088  Biso   1.000  W
  W16      1.0000 0.00000  0.41912  0.58088  Biso   1.000  W
  W17      1.0000 0.08088  0.50000  0.41912  Biso   1.000  W
  W18      1.0000 0.00000  0.58088  0.41912  Biso   1.000  W
  W19      1.0000 0.91912  0.50000  0.41912  Biso   1.000  W
  W20      1.0000 0.00000  0.41912  0.41912  Biso   1.000  W
  W21      1.0000 0.08088  0.58088  0.50000  Biso   1.000  W
  W22      1.0000 0.91912  0.58088  0.50000  Biso   1.000  W
  W23      1.0000 0.91912  0.41912  0.50000  Biso   1.000  W
  W24      1.0000 0.08088  0.41912  0.50000  Biso   1.000  W
  W25      1.0000 0.58088  0.00000  0.58088  Biso   1.000  W
  W26      1.0000 0.50000  0.08088  0.58088  Biso   1.000  W
  W27      1.0000 0.41912  0.00000  0.58088  Biso   1.000  W
  W28      1.0000 0.50000  0.91912  0.58088  Biso   1.000  W
  W29      1.0000 0.58088  0.00000  0.41912  Biso   1.000  W
  W30      1.0000 0.50000  0.08088  0.41912  Biso   1.000  W
  W31      1.0000 0.41912  0.00000  0.41912  Biso   1.000  W
  W32      1.0000 0.50000  0.91912  0.41912  Biso   1.000  W
  W33      1.0000 0.58088  0.08088  0.50000  Biso   1.000  W
  W34      1.0000 0.41912  0.08088  0.50000  Biso   1.000  W
  W35      1.0000 0.41912  0.91912  0.50000  Biso   1.000  W
  W36      1.0000 0.58088  0.91912  0.50000  Biso   1.000  W
  W37      1.0000 0.58088  0.50000  0.08088  Biso   1.000  W
  W38      1.0000 0.50000  0.58088  0.08088  Biso   1.000  W
  W39      1.0000 0.41912  0.50000  0.08088  Biso   1.000  W
  W40      1.0000 0.50000  0.41912  0.08088  Biso   1.000  W
  W41      1.0000 0.58088  0.50000  0.91912  Biso   1.000  W
  W42      1.0000 0.50000  0.58088  0.91912  Biso   1.000  W
  W43      1.0000 0.41912  0.50000  0.91912  Biso   1.000  W
  W44      1.0000 0.50000  0.41912  0.91912  Biso   1.000  W
  W45      1.0000 0.58088  0.58088  0.00000  Biso   1.000  W
  W46      1.0000 0.41912  0.58088  0.00000  Biso   1.000  W
  W47      1.0000 0.41912  0.41912  0.00000  Biso   1.000  W
  W48      1.0000 0.58088  0.41912  0.00000  Biso   1.000  W
  O409     1.0000 0.03050  0.96950  0.03050  Biso   1.000  O
  O410     1.0000 0.03050  0.03050  0.03050  Biso   1.000  O
  O411     1.0000 0.96950  0.03050  0.03050  Biso   1.000  O
  O412     1.0000 0.96950  0.96950  0.03050  Biso   1.000  O
  O413     1.0000 0.03050  0.03050  0.96950  Biso   1.000  O
  O414     1.0000 0.96950  0.03050  0.96950  Biso   1.000  O
  O415     1.0000 0.96950  0.96950  0.96950  Biso   1.000  O
  O416     1.0000 0.03050  0.96950  0.96950  Biso   1.000  O
  O417     1.0000 0.03050  0.46950  0.53050  Biso   1.000  O
  O418     1.0000 0.03050  0.53050  0.53050  Biso   1.000  O
  O419     1.0000 0.96950  0.53050  0.53050  Biso   1.000  O
  O420     1.0000 0.96950  0.46950  0.53050  Biso   1.000  O
  O421     1.0000 0.03050  0.53050  0.46950  Biso   1.000  O
  O422     1.0000 0.96950  0.53050  0.46950  Biso   1.000  O
  O423     1.0000 0.96950  0.46950  0.46950  Biso   1.000  O
  O424     1.0000 0.03050  0.46950  0.46950  Biso   1.000  O
  O425     1.0000 0.53050  0.96950  0.53050  Biso   1.000  O
  O426     1.0000 0.53050  0.03050  0.53050  Biso   1.000  O
  O427     1.0000 0.46950  0.03050  0.53050  Biso   1.000  O
  O428     1.0000 0.46950  0.96950  0.53050  Biso   1.000  O
  O429     1.0000 0.53050  0.03050  0.46950  Biso   1.000  O
  O430     1.0000 0.46950  0.03050  0.46950  Biso   1.000  O
  O431     1.0000 0.46950  0.96950  0.46950  Biso   1.000  O
  O432     1.0000 0.53050  0.96950  0.46950  Biso   1.000  O
  O433     1.0000 0.53050  0.46950  0.03050  Biso   1.000  O
  O434     1.0000 0.53050  0.53050  0.03050  Biso   1.000  O
  O435     1.0000 0.46950  0.53050  0.03050  Biso   1.000  O
  O436     1.0000 0.46950  0.46950  0.03050  Biso   1.000  O
  O437     1.0000 0.53050  0.53050  0.96950  Biso   1.000  O
  O438     1.0000 0.46950  0.53050  0.96950  Biso   1.000  O
  O439     1.0000 0.46950  0.46950  0.96950  Biso   1.000  O
  O440     1.0000 0.53050  0.46950  0.96950  Biso   1.000  O
  O441     1.0000 0.10350  0.04150  0.04150  Biso   1.000  O
  O442     1.0000 0.95850  0.10350  0.04150  Biso   1.000  O
  O443     1.0000 0.89650  0.95850  0.04150  Biso   1.000  O
  O444     1.0000 0.04150  0.89650  0.04150  Biso   1.000  O
  O445     1.0000 0.10350  0.95850  0.95850  Biso   1.000  O
  O446     1.0000 0.04150  0.10350  0.95850  Biso   1.000  O
  O447     1.0000 0.89650  0.04150  0.95850  Biso   1.000  O
  O448     1.0000 0.95850  0.89650  0.95850  Biso   1.000  O
  O449     1.0000 0.04150  0.10350  0.04150  Biso   1.000  O
  O450     1.0000 0.89650  0.04150  0.04150  Biso   1.000  O
  O451     1.0000 0.95850  0.89650  0.04150  Biso   1.000  O
  O452     1.0000 0.10350  0.95850  0.04150  Biso   1.000  O
  O453     1.0000 0.04150  0.89650  0.95850  Biso   1.000  O
  O454     1.0000 0.10350  0.04150  0.95850  Biso   1.000  O
  O455     1.0000 0.95850  0.10350  0.95850  Biso   1.000  O
  O456     1.0000 0.89650  0.95850  0.95850  Biso   1.000  O
  O457     1.0000 0.04150  0.04150  0.10350  Biso   1.000  O
  O458     1.0000 0.95850  0.95850  0.89650  Biso   1.000  O
  O459     1.0000 0.95850  0.04150  0.10350  Biso   1.000  O
  O460     1.0000 0.04150  0.04150  0.89650  Biso   1.000  O
  O461     1.0000 0.04150  0.95850  0.10350  Biso   1.000  O
  O462     1.0000 0.04150  0.95850  0.89650  Biso   1.000  O
  O463     1.0000 0.95850  0.95850  0.10350  Biso   1.000  O
  O464     1.0000 0.95850  0.04150  0.89650  Biso   1.000  O
  O465     1.0000 0.10350  0.54150  0.54150  Biso   1.000  O
  O466     1.0000 0.95850  0.60350  0.54150  Biso   1.000  O
  O467     1.0000 0.89650  0.45850  0.54150  Biso   1.000  O
  O468     1.0000 0.04150  0.39650  0.54150  Biso   1.000  O
  O469     1.0000 0.10350  0.45850  0.45850  Biso   1.000  O
  O470     1.0000 0.04150  0.60350  0.45850  Biso   1.000  O
  O471     1.0000 0.89650  0.54150  0.45850  Biso   1.000  O
  O472     1.0000 0.95850  0.39650  0.45850  Biso   1.000  O
  O473     1.0000 0.04150  0.60350  0.54150  Biso   1.000  O
  O474     1.0000 0.89650  0.54150  0.54150  Biso   1.000  O
  O475     1.0000 0.95850  0.39650  0.54150  Biso   1.000  O
  O476     1.0000 0.10350  0.45850  0.54150  Biso   1.000  O
  O477     1.0000 0.04150  0.39650  0.45850  Biso   1.000  O
  O478     1.0000 0.10350  0.54150  0.45850  Biso   1.000  O
  O479     1.0000 0.95850  0.60350  0.45850  Biso   1.000  O
  O480     1.0000 0.89650  0.45850  0.45850  Biso   1.000  O
  O481     1.0000 0.04150  0.54150  0.60350  Biso   1.000  O
  O482     1.0000 0.95850  0.45850  0.39650  Biso   1.000  O
  O483     1.0000 0.95850  0.54150  0.60350  Biso   1.000  O
  O484     1.0000 0.04150  0.54150  0.39650  Biso   1.000  O
  O485     1.0000 0.04150  0.45850  0.60350  Biso   1.000  O
  O486     1.0000 0.04150  0.45850  0.39650  Biso   1.000  O
  O487     1.0000 0.95850  0.45850  0.60350  Biso   1.000  O
  O488     1.0000 0.95850  0.54150  0.39650  Biso   1.000  O
  O489     1.0000 0.60350  0.04150  0.54150  Biso   1.000  O
  O490     1.0000 0.45850  0.10350  0.54150  Biso   1.000  O
  O491     1.0000 0.39650  0.95850  0.54150  Biso   1.000  O
  O492     1.0000 0.54150  0.89650  0.54150  Biso   1.000  O
  O493     1.0000 0.60350  0.95850  0.45850  Biso   1.000  O
  O494     1.0000 0.54150  0.10350  0.45850  Biso   1.000  O
  O495     1.0000 0.39650  0.04150  0.45850  Biso   1.000  O
  O496     1.0000 0.45850  0.89650  0.45850  Biso   1.000  O
  O497     1.0000 0.54150  0.10350  0.54150  Biso   1.000  O
  O498     1.0000 0.39650  0.04150  0.54150  Biso   1.000  O
  O499     1.0000 0.45850  0.89650  0.54150  Biso   1.000  O
  O500     1.0000 0.60350  0.95850  0.54150  Biso   1.000  O
  O501     1.0000 0.54150  0.89650  0.45850  Biso   1.000  O
  O502     1.0000 0.60350  0.04150  0.45850  Biso   1.000  O
  O503     1.0000 0.45850  0.10350  0.45850  Biso   1.000  O
  O504     1.0000 0.39650  0.95850  0.45850  Biso   1.000  O
  O505     1.0000 0.54150  0.04150  0.60350  Biso   1.000  O
  O506     1.0000 0.45850  0.95850  0.39650  Biso   1.000  O
  O507     1.0000 0.45850  0.04150  0.60350  Biso   1.000  O
  O508     1.0000 0.54150  0.04150  0.39650  Biso   1.000  O
  O509     1.0000 0.54150  0.95850  0.60350  Biso   1.000  O
  O510     1.0000 0.54150  0.95850  0.39650  Biso   1.000  O
  O511     1.0000 0.45850  0.95850  0.60350  Biso   1.000  O
  O512     1.0000 0.45850  0.04150  0.39650  Biso   1.000  O
  O513     1.0000 0.60350  0.54150  0.04150  Biso   1.000  O
  O514     1.0000 0.45850  0.60350  0.04150  Biso   1.000  O
  O515     1.0000 0.39650  0.45850  0.04150  Biso   1.000  O
  O516     1.0000 0.54150  0.39650  0.04150  Biso   1.000  O
  O517     1.0000 0.60350  0.45850  0.95850  Biso   1.000  O
  O518     1.0000 0.54150  0.60350  0.95850  Biso   1.000  O
  O519     1.0000 0.39650  0.54150  0.95850  Biso   1.000  O
  O520     1.0000 0.45850  0.39650  0.95850  Biso   1.000  O
  O521     1.0000 0.54150  0.60350  0.04150  Biso   1.000  O
  O522     1.0000 0.39650  0.54150  0.04150  Biso   1.000  O
  O523     1.0000 0.45850  0.39650  0.04150  Biso   1.000  O
  O524     1.0000 0.60350  0.45850  0.04150  Biso   1.000  O
  O525     1.0000 0.54150  0.39650  0.95850  Biso   1.000  O
  O526     1.0000 0.60350  0.54150  0.95850  Biso   1.000  O
  O527     1.0000 0.45850  0.60350  0.95850  Biso   1.000  O
  O528     1.0000 0.39650  0.45850  0.95850  Biso   1.000  O
  O529     1.0000 0.54150  0.54150  0.10350  Biso   1.000  O
  O530     1.0000 0.45850  0.45850  0.89650  Biso   1.000  O
  O531     1.0000 0.45850  0.54150  0.10350  Biso   1.000  O
  O532     1.0000 0.54150  0.54150  0.89650  Biso   1.000  O
  O533     1.0000 0.54150  0.45850  0.10350  Biso   1.000  O
  O534     1.0000 0.54150  0.45850  0.89650  Biso   1.000  O
  O535     1.0000 0.45850  0.45850  0.10350  Biso   1.000  O
  O536     1.0000 0.45850  0.54150  0.89650  Biso   1.000  O
  O537     1.0000 0.11920  0.00000  0.11920  Biso   1.000  O
  O538     1.0000 0.00000  0.11920  0.11920  Biso   1.000  O
  O539     1.0000 0.88080  0.00000  0.11920  Biso   1.000  O
  O540     1.0000 0.00000  0.88080  0.11920  Biso   1.000  O
  O541     1.0000 0.11920  0.00000  0.88080  Biso   1.000  O
  O542     1.0000 0.00000  0.11920  0.88080  Biso   1.000  O
  O543     1.0000 0.88080  0.00000  0.88080  Biso   1.000  O
  O544     1.0000 0.00000  0.88080  0.88080  Biso   1.000  O
  O545     1.0000 0.11920  0.11920  0.00000  Biso   1.000  O
  O546     1.0000 0.88080  0.11920  0.00000  Biso   1.000  O
  O547     1.0000 0.88080  0.88080  0.00000  Biso   1.000  O
  O548     1.0000 0.11920  0.88080  0.00000  Biso   1.000  O
  O549     1.0000 0.11920  0.50000  0.61920  Biso   1.000  O
  O550     1.0000 0.00000  0.61920  0.61920  Biso   1.000  O
  O551     1.0000 0.88080  0.50000  0.61920  Biso   1.000  O
  O552     1.0000 0.00000  0.38080  0.61920  Biso   1.000  O
  O553     1.0000 0.11920  0.50000  0.38080  Biso   1.000  O
  O554     1.0000 0.00000  0.61920  0.38080  Biso   1.000  O
  O555     1.0000 0.88080  0.50000  0.38080  Biso   1.000  O
  O556     1.0000 0.00000  0.38080  0.38080  Biso   1.000  O
  O557     1.0000 0.11920  0.61920  0.50000  Biso   1.000  O
  O558     1.0000 0.88080  0.61920  0.50000  Biso   1.000  O
  O559     1.0000 0.88080  0.38080  0.50000  Biso   1.000  O
  O560     1.0000 0.11920  0.38080  0.50000  Biso   1.000  O
  O561     1.0000 0.61920  0.00000  0.61920  Biso   1.000  O
  O562     1.0000 0.50000  0.11920  0.61920  Biso   1.000  O
  O563     1.0000 0.38080  0.00000  0.61920  Biso   1.000  O
  O564     1.0000 0.50000  0.88080  0.61920  Biso   1.000  O
  O565     1.0000 0.61920  0.00000  0.38080  Biso   1.000  O
  O566     1.0000 0.50000  0.11920  0.38080  Biso   1.000  O
  O567     1.0000 0.38080  0.00000  0.38080  Biso   1.000  O
  O568     1.0000 0.50000  0.88080  0.38080  Biso   1.000  O
  O569     1.0000 0.61920  0.11920  0.50000  Biso   1.000  O
  O570     1.0000 0.38080  0.11920  0.50000  Biso   1.000  O
  O571     1.0000 0.38080  0.88080  0.50000  Biso   1.000  O
  O572     1.0000 0.61920  0.88080  0.50000  Biso   1.000  O
  O573     1.0000 0.61920  0.50000  0.11920  Biso   1.000  O
  O574     1.0000 0.50000  0.61920  0.11920  Biso   1.000  O
  O575     1.0000 0.38080  0.50000  0.11920  Biso   1.000  O
  O576     1.0000 0.50000  0.38080  0.11920  Biso   1.000  O
  O577     1.0000 0.61920  0.50000  0.88080  Biso   1.000  O
  O578     1.0000 0.50000  0.61920  0.88080  Biso   1.000  O
  O579     1.0000 0.38080  0.50000  0.88080  Biso   1.000  O
  O580     1.0000 0.50000  0.38080  0.88080  Biso   1.000  O
  O581     1.0000 0.61920  0.61920  0.00000  Biso   1.000  O
  O582     1.0000 0.38080  0.61920  0.00000  Biso   1.000  O
  O583     1.0000 0.38080  0.38080  0.00000  Biso   1.000  O
  O584     1.0000 0.61920  0.38080  0.00000  Biso   1.000  O
