data_image0
_cell_length_a       37.1384
_cell_length_b       37.1384
_cell_length_c       74.478
_cell_angle_alpha    90
_cell_angle_beta     90
_cell_angle_gamma    120

_symmetry_space_group_name_H-M    "P 1"
_symmetry_int_tables_number       1

loop_
  _symmetry_equiv_pos_as_xyz
  'x, y, z'

loop_
  _atom_site_label
  _atom_site_occupancy
  _atom_site_fract_x
  _atom_site_fract_y
  _atom_site_fract_z
  _atom_site_thermal_displace_type
  _atom_site_B_iso_or_equiv
  _atom_site_type_symbol
  Cu1      1.0000 0.45344  0.54656  0.55818  Biso   1.000  Cu
  Cu2      1.0000 0.45344  0.90688  0.55818  Biso   1.000  Cu
  Cu3      1.0000 0.09312  0.54656  0.55818  Biso   1.000  Cu
  Cu4      1.0000 0.54656  0.45344  0.05818  Biso   1.000  Cu
  Cu5      1.0000 0.54656  0.09312  0.05818  Biso   1.000  Cu
  Cu6      1.0000 0.90688  0.45344  0.05818  Biso   1.000  Cu
  Cu7      1.0000 0.54656  0.45344  0.44182  Biso   1.000  Cu
  Cu8      1.0000 0.90688  0.45344  0.44182  Biso   1.000  Cu
  Cu9      1.0000 0.54656  0.09312  0.44182  Biso   1.000  Cu
  Cu10     1.0000 0.45344  0.54656  0.94182  Biso   1.000  Cu
  Cu11     1.0000 0.09312  0.54656  0.94182  Biso   1.000  Cu
  Cu12     1.0000 0.45344  0.90688  0.94182  Biso   1.000  Cu
  O1       1.0000 0.48481  0.51519  0.54342  Biso   1.000  O
  O2       1.0000 0.48481  0.96962  0.54342  Biso   1.000  O
  O3       1.0000 0.03038  0.51519  0.54342  Biso   1.000  O
  O4       1.0000 0.51519  0.48481  0.04342  Biso   1.000  O
  O5       1.0000 0.51519  0.03038  0.04342  Biso   1.000  O
  O6       1.0000 0.96962  0.48481  0.04342  Biso   1.000  O
  O7       1.0000 0.51519  0.48481  0.45658  Biso   1.000  O
  O8       1.0000 0.96962  0.48481  0.45658  Biso   1.000  O
  O9       1.0000 0.51519  0.03038  0.45658  Biso   1.000  O
  O10      1.0000 0.48481  0.51519  0.95658  Biso   1.000  O
  O11      1.0000 0.03038  0.51519  0.95658  Biso   1.000  O
  O12      1.0000 0.48481  0.96962  0.95658  Biso   1.000  O
  O13      1.0000 0.47688  0.59632  0.54387  Biso   1.000  O
  O14      1.0000 0.40368  0.88056  0.54387  Biso   1.000  O
  O15      1.0000 0.11944  0.52312  0.54387  Biso   1.000  O
  O16      1.0000 0.52312  0.40368  0.04387  Biso   1.000  O
  O17      1.0000 0.59632  0.11944  0.04387  Biso   1.000  O
  O18      1.0000 0.88056  0.47688  0.04387  Biso   1.000  O
  O19      1.0000 0.59632  0.47688  0.45613  Biso   1.000  O
  O20      1.0000 0.88056  0.40368  0.45613  Biso   1.000  O
  O21      1.0000 0.52312  0.11944  0.45613  Biso   1.000  O
  O22      1.0000 0.40368  0.52312  0.95613  Biso   1.000  O
  O23      1.0000 0.11944  0.59632  0.95613  Biso   1.000  O
  O24      1.0000 0.47688  0.88056  0.95613  Biso   1.000  O
  O25      1.0000 0.52312  0.40368  0.45613  Biso   1.000  O
  O26      1.0000 0.59632  0.11944  0.45613  Biso   1.000  O
  O27      1.0000 0.88056  0.47688  0.45613  Biso   1.000  O
  O28      1.0000 0.47688  0.59632  0.95613  Biso   1.000  O
  O29      1.0000 0.40368  0.88056  0.95613  Biso   1.000  O
  O30      1.0000 0.11944  0.52312  0.95613  Biso   1.000  O
  O31      1.0000 0.40368  0.52312  0.54387  Biso   1.000  O
  O32      1.0000 0.11944  0.59632  0.54387  Biso   1.000  O
  O33      1.0000 0.47688  0.88056  0.54387  Biso   1.000  O
  O34      1.0000 0.59632  0.47688  0.04387  Biso   1.000  O
  O35      1.0000 0.88056  0.40368  0.04387  Biso   1.000  O
  O36      1.0000 0.52312  0.11944  0.04387  Biso   1.000  O
  O37      1.0000 0.49892  0.57449  0.57524  Biso   1.000  O
  O38      1.0000 0.42551  0.92443  0.57524  Biso   1.000  O
  O39      1.0000 0.07557  0.50108  0.57524  Biso   1.000  O
  O40      1.0000 0.50108  0.42551  0.07524  Biso   1.000  O
  O41      1.0000 0.57449  0.07557  0.07524  Biso   1.000  O
  O42      1.0000 0.92443  0.49892  0.07524  Biso   1.000  O
  O43      1.0000 0.57449  0.49892  0.42476  Biso   1.000  O
  O44      1.0000 0.92443  0.42551  0.42476  Biso   1.000  O
  O45      1.0000 0.50108  0.07557  0.42476  Biso   1.000  O
  O46      1.0000 0.42551  0.50108  0.92476  Biso   1.000  O
  O47      1.0000 0.07557  0.57449  0.92476  Biso   1.000  O
  O48      1.0000 0.49892  0.92443  0.92476  Biso   1.000  O
  O49      1.0000 0.50108  0.42551  0.42476  Biso   1.000  O
  O50      1.0000 0.57449  0.07557  0.42476  Biso   1.000  O
  O51      1.0000 0.92443  0.49892  0.42476  Biso   1.000  O
  O52      1.0000 0.49892  0.57449  0.92476  Biso   1.000  O
  O53      1.0000 0.42551  0.92443  0.92476  Biso   1.000  O
  O54      1.0000 0.07557  0.50108  0.92476  Biso   1.000  O
  O55      1.0000 0.42551  0.50108  0.57524  Biso   1.000  O
  O56      1.0000 0.07557  0.57449  0.57524  Biso   1.000  O
  O57      1.0000 0.49892  0.92443  0.57524  Biso   1.000  O
  O58      1.0000 0.57449  0.49892  0.07524  Biso   1.000  O
  O59      1.0000 0.92443  0.42551  0.07524  Biso   1.000  O
  O60      1.0000 0.50108  0.07557  0.07524  Biso   1.000  O
  C1       1.0000 0.46730  0.62340  0.54680  Biso   1.000  C
  C2       1.0000 0.37660  0.84390  0.54680  Biso   1.000  C
  C3       1.0000 0.15610  0.53270  0.54680  Biso   1.000  C
  C4       1.0000 0.53270  0.37660  0.04680  Biso   1.000  C
  C5       1.0000 0.62340  0.15610  0.04680  Biso   1.000  C
  C6       1.0000 0.84390  0.46730  0.04680  Biso   1.000  C
  C7       1.0000 0.62340  0.46730  0.45320  Biso   1.000  C
  C8       1.0000 0.84390  0.37660  0.45320  Biso   1.000  C
  C9       1.0000 0.53270  0.15610  0.45320  Biso   1.000  C
  C10      1.0000 0.37660  0.53270  0.95320  Biso   1.000  C
  C11      1.0000 0.15610  0.62340  0.95320  Biso   1.000  C
  C12      1.0000 0.46730  0.84390  0.95320  Biso   1.000  C
  C13      1.0000 0.53270  0.37660  0.45320  Biso   1.000  C
  C14      1.0000 0.62340  0.15610  0.45320  Biso   1.000  C
  C15      1.0000 0.84390  0.46730  0.45320  Biso   1.000  C
  C16      1.0000 0.46730  0.62340  0.95320  Biso   1.000  C
  C17      1.0000 0.37660  0.84390  0.95320  Biso   1.000  C
  C18      1.0000 0.15610  0.53270  0.95320  Biso   1.000  C
  C19      1.0000 0.37660  0.53270  0.54680  Biso   1.000  C
  C20      1.0000 0.15610  0.62340  0.54680  Biso   1.000  C
  C21      1.0000 0.46730  0.84390  0.54680  Biso   1.000  C
  C22      1.0000 0.62340  0.46730  0.04680  Biso   1.000  C
  C23      1.0000 0.84390  0.37660  0.04680  Biso   1.000  C
  C24      1.0000 0.53270  0.15610  0.04680  Biso   1.000  C
  O61      1.0000 0.44745  0.62632  0.56011  Biso   1.000  O
  O62      1.0000 0.37368  0.82113  0.56011  Biso   1.000  O
  O63      1.0000 0.17887  0.55255  0.56011  Biso   1.000  O
  O64      1.0000 0.55255  0.37368  0.06011  Biso   1.000  O
  O65      1.0000 0.62632  0.17887  0.06011  Biso   1.000  O
  O66      1.0000 0.82113  0.44745  0.06011  Biso   1.000  O
  O67      1.0000 0.62632  0.44745  0.43989  Biso   1.000  O
  O68      1.0000 0.82113  0.37368  0.43989  Biso   1.000  O
  O69      1.0000 0.55255  0.17887  0.43989  Biso   1.000  O
  O70      1.0000 0.37368  0.55255  0.93989  Biso   1.000  O
  O71      1.0000 0.17887  0.62632  0.93989  Biso   1.000  O
  O72      1.0000 0.44745  0.82113  0.93989  Biso   1.000  O
  O73      1.0000 0.55255  0.37368  0.43989  Biso   1.000  O
  O74      1.0000 0.62632  0.17887  0.43989  Biso   1.000  O
  O75      1.0000 0.82113  0.44745  0.43989  Biso   1.000  O
  O76      1.0000 0.44745  0.62632  0.93989  Biso   1.000  O
  O77      1.0000 0.37368  0.82113  0.93989  Biso   1.000  O
  O78      1.0000 0.17887  0.55255  0.93989  Biso   1.000  O
  O79      1.0000 0.37368  0.55255  0.56011  Biso   1.000  O
  O80      1.0000 0.17887  0.62632  0.56011  Biso   1.000  O
  O81      1.0000 0.44745  0.82113  0.56011  Biso   1.000  O
  O82      1.0000 0.62632  0.44745  0.06011  Biso   1.000  O
  O83      1.0000 0.82113  0.37368  0.06011  Biso   1.000  O
  O84      1.0000 0.55255  0.17887  0.06011  Biso   1.000  O
  C25      1.0000 0.47840  0.65910  0.53401  Biso   1.000  C
  C26      1.0000 0.34090  0.81930  0.53401  Biso   1.000  C
  C27      1.0000 0.18070  0.52160  0.53401  Biso   1.000  C
  C28      1.0000 0.52160  0.34090  0.03401  Biso   1.000  C
  C29      1.0000 0.65910  0.18070  0.03401  Biso   1.000  C
  C30      1.0000 0.81930  0.47840  0.03401  Biso   1.000  C
  C31      1.0000 0.65910  0.47840  0.46599  Biso   1.000  C
  C32      1.0000 0.81930  0.34090  0.46599  Biso   1.000  C
  C33      1.0000 0.52160  0.18070  0.46599  Biso   1.000  C
  C34      1.0000 0.34090  0.52160  0.96599  Biso   1.000  C
  C35      1.0000 0.18070  0.65910  0.96599  Biso   1.000  C
  C36      1.0000 0.47840  0.81930  0.96599  Biso   1.000  C
  C37      1.0000 0.52160  0.34090  0.46599  Biso   1.000  C
  C38      1.0000 0.65910  0.18070  0.46599  Biso   1.000  C
  C39      1.0000 0.81930  0.47840  0.46599  Biso   1.000  C
  C40      1.0000 0.47840  0.65910  0.96599  Biso   1.000  C
  C41      1.0000 0.34090  0.81930  0.96599  Biso   1.000  C
  C42      1.0000 0.18070  0.52160  0.96599  Biso   1.000  C
  C43      1.0000 0.34090  0.52160  0.53401  Biso   1.000  C
  C44      1.0000 0.18070  0.65910  0.53401  Biso   1.000  C
  C45      1.0000 0.47840  0.81930  0.53401  Biso   1.000  C
  C46      1.0000 0.65910  0.47840  0.03401  Biso   1.000  C
  C47      1.0000 0.81930  0.34090  0.03401  Biso   1.000  C
  C48      1.0000 0.52160  0.18070  0.03401  Biso   1.000  C
  Cu13     1.0000 0.41934  0.58066  0.57717  Biso   1.000  Cu
  Cu14     1.0000 0.41934  0.83868  0.57717  Biso   1.000  Cu
  Cu15     1.0000 0.16132  0.58066  0.57717  Biso   1.000  Cu
  Cu16     1.0000 0.58066  0.41934  0.07717  Biso   1.000  Cu
  Cu17     1.0000 0.58066  0.16132  0.07717  Biso   1.000  Cu
  Cu18     1.0000 0.83868  0.41934  0.07717  Biso   1.000  Cu
  Cu19     1.0000 0.58066  0.41934  0.42283  Biso   1.000  Cu
  Cu20     1.0000 0.83868  0.41934  0.42283  Biso   1.000  Cu
  Cu21     1.0000 0.58066  0.16132  0.42283  Biso   1.000  Cu
  Cu22     1.0000 0.41934  0.58066  0.92283  Biso   1.000  Cu
  Cu23     1.0000 0.16132  0.58066  0.92283  Biso   1.000  Cu
  Cu24     1.0000 0.41934  0.83868  0.92283  Biso   1.000  Cu
  C49      1.0000 0.47430  0.69380  0.53718  Biso   1.000  C
  C50      1.0000 0.30620  0.78050  0.53718  Biso   1.000  C
  C51      1.0000 0.21950  0.52570  0.53718  Biso   1.000  C
  C52      1.0000 0.52570  0.30620  0.03718  Biso   1.000  C
  C53      1.0000 0.69380  0.21950  0.03718  Biso   1.000  C
  C54      1.0000 0.78050  0.47430  0.03718  Biso   1.000  C
  C55      1.0000 0.69380  0.47430  0.46282  Biso   1.000  C
  C56      1.0000 0.78050  0.30620  0.46282  Biso   1.000  C
  C57      1.0000 0.52570  0.21950  0.46282  Biso   1.000  C
  C58      1.0000 0.30620  0.52570  0.96282  Biso   1.000  C
  C59      1.0000 0.21950  0.69380  0.96282  Biso   1.000  C
  C60      1.0000 0.47430  0.78050  0.96282  Biso   1.000  C
  C61      1.0000 0.52570  0.30620  0.46282  Biso   1.000  C
  C62      1.0000 0.69380  0.21950  0.46282  Biso   1.000  C
  C63      1.0000 0.78050  0.47430  0.46282  Biso   1.000  C
  C64      1.0000 0.47430  0.69380  0.96282  Biso   1.000  C
  C65      1.0000 0.30620  0.78050  0.96282  Biso   1.000  C
  C66      1.0000 0.21950  0.52570  0.96282  Biso   1.000  C
  C67      1.0000 0.30620  0.52570  0.53718  Biso   1.000  C
  C68      1.0000 0.21950  0.69380  0.53718  Biso   1.000  C
  C69      1.0000 0.47430  0.78050  0.53718  Biso   1.000  C
  C70      1.0000 0.69380  0.47430  0.03718  Biso   1.000  C
  C71      1.0000 0.78050  0.30620  0.03718  Biso   1.000  C
  C72      1.0000 0.52570  0.21950  0.03718  Biso   1.000  C
  C73      1.0000 0.49880  0.65730  0.51870  Biso   1.000  C
  C74      1.0000 0.34270  0.84150  0.51870  Biso   1.000  C
  C75      1.0000 0.15850  0.50120  0.51870  Biso   1.000  C
  C76      1.0000 0.50120  0.34270  0.01870  Biso   1.000  C
  C77      1.0000 0.65730  0.15850  0.01870  Biso   1.000  C
  C78      1.0000 0.84150  0.49880  0.01870  Biso   1.000  C
  C79      1.0000 0.65730  0.49880  0.48130  Biso   1.000  C
  C80      1.0000 0.84150  0.34270  0.48130  Biso   1.000  C
  C81      1.0000 0.50120  0.15850  0.48130  Biso   1.000  C
  C82      1.0000 0.34270  0.50120  0.98130  Biso   1.000  C
  C83      1.0000 0.15850  0.65730  0.98130  Biso   1.000  C
  C84      1.0000 0.49880  0.84150  0.98130  Biso   1.000  C
  C85      1.0000 0.50120  0.34270  0.48130  Biso   1.000  C
  C86      1.0000 0.65730  0.15850  0.48130  Biso   1.000  C
  C87      1.0000 0.84150  0.49880  0.48130  Biso   1.000  C
  C88      1.0000 0.49880  0.65730  0.98130  Biso   1.000  C
  C89      1.0000 0.34270  0.84150  0.98130  Biso   1.000  C
  C90      1.0000 0.15850  0.50120  0.98130  Biso   1.000  C
  C91      1.0000 0.34270  0.50120  0.51870  Biso   1.000  C
  C92      1.0000 0.15850  0.65730  0.51870  Biso   1.000  C
  C93      1.0000 0.49880  0.84150  0.51870  Biso   1.000  C
  C94      1.0000 0.65730  0.49880  0.01870  Biso   1.000  C
  C95      1.0000 0.84150  0.34270  0.01870  Biso   1.000  C
  C96      1.0000 0.50120  0.15850  0.01870  Biso   1.000  C
  O85      1.0000 0.39014  0.60986  0.59334  Biso   1.000  O
  O86      1.0000 0.39014  0.78028  0.59334  Biso   1.000  O
  O87      1.0000 0.21972  0.60986  0.59334  Biso   1.000  O
  O88      1.0000 0.60986  0.39014  0.09334  Biso   1.000  O
  O89      1.0000 0.60986  0.21972  0.09334  Biso   1.000  O
  O90      1.0000 0.78028  0.39014  0.09334  Biso   1.000  O
  O91      1.0000 0.60986  0.39014  0.40666  Biso   1.000  O
  O92      1.0000 0.78028  0.39014  0.40666  Biso   1.000  O
  O93      1.0000 0.60986  0.21972  0.40666  Biso   1.000  O
  O94      1.0000 0.39014  0.60986  0.90666  Biso   1.000  O
  O95      1.0000 0.21972  0.60986  0.90666  Biso   1.000  O
  O96      1.0000 0.39014  0.78028  0.90666  Biso   1.000  O
  O97      1.0000 0.46974  0.60381  0.59171  Biso   1.000  O
  O98      1.0000 0.39619  0.86593  0.59171  Biso   1.000  O
  O99      1.0000 0.13407  0.53026  0.59171  Biso   1.000  O
  O100     1.0000 0.53026  0.39619  0.09171  Biso   1.000  O
  O101     1.0000 0.60381  0.13407  0.09171  Biso   1.000  O
  O102     1.0000 0.86593  0.46974  0.09171  Biso   1.000  O
  O103     1.0000 0.60381  0.46974  0.40829  Biso   1.000  O
  O104     1.0000 0.86593  0.39619  0.40829  Biso   1.000  O
  O105     1.0000 0.53026  0.13407  0.40829  Biso   1.000  O
  O106     1.0000 0.39619  0.53026  0.90829  Biso   1.000  O
  O107     1.0000 0.13407  0.60381  0.90829  Biso   1.000  O
  O108     1.0000 0.46974  0.86593  0.90829  Biso   1.000  O
  O109     1.0000 0.53026  0.39619  0.40829  Biso   1.000  O
  O110     1.0000 0.60381  0.13407  0.40829  Biso   1.000  O
  O111     1.0000 0.86593  0.46974  0.40829  Biso   1.000  O
  O112     1.0000 0.46974  0.60381  0.90829  Biso   1.000  O
  O113     1.0000 0.39619  0.86593  0.90829  Biso   1.000  O
  O114     1.0000 0.13407  0.53026  0.90829  Biso   1.000  O
  O115     1.0000 0.39619  0.53026  0.59171  Biso   1.000  O
  O116     1.0000 0.13407  0.60381  0.59171  Biso   1.000  O
  O117     1.0000 0.46974  0.86593  0.59171  Biso   1.000  O
  O118     1.0000 0.60381  0.46974  0.09171  Biso   1.000  O
  O119     1.0000 0.86593  0.39619  0.09171  Biso   1.000  O
  O120     1.0000 0.53026  0.13407  0.09171  Biso   1.000  O
  H1       1.0000 0.46040  0.69500  0.54770  Biso   1.000  H
  H2       1.0000 0.30500  0.76540  0.54770  Biso   1.000  H
  H3       1.0000 0.23460  0.53960  0.54770  Biso   1.000  H
  H4       1.0000 0.53960  0.30500  0.04770  Biso   1.000  H
  H5       1.0000 0.69500  0.23460  0.04770  Biso   1.000  H
  H6       1.0000 0.76540  0.46040  0.04770  Biso   1.000  H
  H7       1.0000 0.69500  0.46040  0.45230  Biso   1.000  H
  H8       1.0000 0.76540  0.30500  0.45230  Biso   1.000  H
  H9       1.0000 0.53960  0.23460  0.45230  Biso   1.000  H
  H10      1.0000 0.30500  0.53960  0.95230  Biso   1.000  H
  H11      1.0000 0.23460  0.69500  0.95230  Biso   1.000  H
  H12      1.0000 0.46040  0.76540  0.95230  Biso   1.000  H
  H13      1.0000 0.53960  0.30500  0.45230  Biso   1.000  H
  H14      1.0000 0.69500  0.23460  0.45230  Biso   1.000  H
  H15      1.0000 0.76540  0.46040  0.45230  Biso   1.000  H
  H16      1.0000 0.46040  0.69500  0.95230  Biso   1.000  H
  H17      1.0000 0.30500  0.76540  0.95230  Biso   1.000  H
  H18      1.0000 0.23460  0.53960  0.95230  Biso   1.000  H
  H19      1.0000 0.30500  0.53960  0.54770  Biso   1.000  H
  H20      1.0000 0.23460  0.69500  0.54770  Biso   1.000  H
  H21      1.0000 0.46040  0.76540  0.54770  Biso   1.000  H
  H22      1.0000 0.69500  0.46040  0.04770  Biso   1.000  H
  H23      1.0000 0.76540  0.30500  0.04770  Biso   1.000  H
  H24      1.0000 0.53960  0.23460  0.04770  Biso   1.000  H
  C97      1.0000 0.49050  0.72650  0.52500  Biso   1.000  C
  C98      1.0000 0.27350  0.76400  0.52500  Biso   1.000  C
  C99      1.0000 0.23600  0.50950  0.52500  Biso   1.000  C
  C100     1.0000 0.50950  0.27350  0.02500  Biso   1.000  C
  C101     1.0000 0.72650  0.23600  0.02500  Biso   1.000  C
  C102     1.0000 0.76400  0.49050  0.02500  Biso   1.000  C
  C103     1.0000 0.72650  0.49050  0.47500  Biso   1.000  C
  C104     1.0000 0.76400  0.27350  0.47500  Biso   1.000  C
  C105     1.0000 0.50950  0.23600  0.47500  Biso   1.000  C
  C106     1.0000 0.27350  0.50950  0.97500  Biso   1.000  C
  C107     1.0000 0.23600  0.72650  0.97500  Biso   1.000  C
  C108     1.0000 0.49050  0.76400  0.97500  Biso   1.000  C
  C109     1.0000 0.50950  0.27350  0.47500  Biso   1.000  C
  C110     1.0000 0.72650  0.23600  0.47500  Biso   1.000  C
  C111     1.0000 0.76400  0.49050  0.47500  Biso   1.000  C
  C112     1.0000 0.49050  0.72650  0.97500  Biso   1.000  C
  C113     1.0000 0.27350  0.76400  0.97500  Biso   1.000  C
  C114     1.0000 0.23600  0.50950  0.97500  Biso   1.000  C
  C115     1.0000 0.27350  0.50950  0.52500  Biso   1.000  C
  C116     1.0000 0.23600  0.72650  0.52500  Biso   1.000  C
  C117     1.0000 0.49050  0.76400  0.52500  Biso   1.000  C
  C118     1.0000 0.72650  0.49050  0.02500  Biso   1.000  C
  C119     1.0000 0.76400  0.27350  0.02500  Biso   1.000  C
  C120     1.0000 0.50950  0.23600  0.02500  Biso   1.000  C
  C121     1.0000 0.51500  0.69000  0.50651  Biso   1.000  C
  C122     1.0000 0.31000  0.82500  0.50651  Biso   1.000  C
  C123     1.0000 0.17500  0.48500  0.50651  Biso   1.000  C
  C124     1.0000 0.48500  0.31000  0.00651  Biso   1.000  C
  C125     1.0000 0.69000  0.17500  0.00651  Biso   1.000  C
  C126     1.0000 0.82500  0.51500  0.00651  Biso   1.000  C
  C127     1.0000 0.69000  0.51500  0.49349  Biso   1.000  C
  C128     1.0000 0.82500  0.31000  0.49349  Biso   1.000  C
  C129     1.0000 0.48500  0.17500  0.49349  Biso   1.000  C
  C130     1.0000 0.31000  0.48500  0.99349  Biso   1.000  C
  C131     1.0000 0.17500  0.69000  0.99349  Biso   1.000  C
  C132     1.0000 0.51500  0.82500  0.99349  Biso   1.000  C
  C133     1.0000 0.48500  0.31000  0.49349  Biso   1.000  C
  C134     1.0000 0.69000  0.17500  0.49349  Biso   1.000  C
  C135     1.0000 0.82500  0.51500  0.49349  Biso   1.000  C
  C136     1.0000 0.51500  0.69000  0.99349  Biso   1.000  C
  C137     1.0000 0.31000  0.82500  0.99349  Biso   1.000  C
  C138     1.0000 0.17500  0.48500  0.99349  Biso   1.000  C
  C139     1.0000 0.31000  0.48500  0.50651  Biso   1.000  C
  C140     1.0000 0.17500  0.69000  0.50651  Biso   1.000  C
  C141     1.0000 0.51500  0.82500  0.50651  Biso   1.000  C
  C142     1.0000 0.69000  0.51500  0.00651  Biso   1.000  C
  C143     1.0000 0.82500  0.31000  0.00651  Biso   1.000  C
  C144     1.0000 0.48500  0.17500  0.00651  Biso   1.000  C
  H25      1.0000 0.50160  0.63360  0.51650  Biso   1.000  H
  H26      1.0000 0.36640  0.86800  0.51650  Biso   1.000  H
  H27      1.0000 0.13200  0.49840  0.51650  Biso   1.000  H
  H28      1.0000 0.49840  0.36640  0.01650  Biso   1.000  H
  H29      1.0000 0.63360  0.13200  0.01650  Biso   1.000  H
  H30      1.0000 0.86800  0.50160  0.01650  Biso   1.000  H
  H31      1.0000 0.63360  0.50160  0.48350  Biso   1.000  H
  H32      1.0000 0.86800  0.36640  0.48350  Biso   1.000  H
  H33      1.0000 0.49840  0.13200  0.48350  Biso   1.000  H
  H34      1.0000 0.36640  0.49840  0.98350  Biso   1.000  H
  H35      1.0000 0.13200  0.63360  0.98350  Biso   1.000  H
  H36      1.0000 0.50160  0.86800  0.98350  Biso   1.000  H
  H37      1.0000 0.49840  0.36640  0.48350  Biso   1.000  H
  H38      1.0000 0.63360  0.13200  0.48350  Biso   1.000  H
  H39      1.0000 0.86800  0.50160  0.48350  Biso   1.000  H
  H40      1.0000 0.50160  0.63360  0.98350  Biso   1.000  H
  H41      1.0000 0.36640  0.86800  0.98350  Biso   1.000  H
  H42      1.0000 0.13200  0.49840  0.98350  Biso   1.000  H
  H43      1.0000 0.36640  0.49840  0.51650  Biso   1.000  H
  H44      1.0000 0.13200  0.63360  0.51650  Biso   1.000  H
  H45      1.0000 0.50160  0.86800  0.51650  Biso   1.000  H
  H46      1.0000 0.63360  0.50160  0.01650  Biso   1.000  H
  H47      1.0000 0.86800  0.36640  0.01650  Biso   1.000  H
  H48      1.0000 0.49840  0.13200  0.01650  Biso   1.000  H
  C145     1.0000 0.51080  0.72470  0.50968  Biso   1.000  C
  C146     1.0000 0.27530  0.78610  0.50968  Biso   1.000  C
  C147     1.0000 0.21390  0.48920  0.50968  Biso   1.000  C
  C148     1.0000 0.48920  0.27530  0.00968  Biso   1.000  C
  C149     1.0000 0.72470  0.21390  0.00968  Biso   1.000  C
  C150     1.0000 0.78610  0.51080  0.00968  Biso   1.000  C
  C151     1.0000 0.72470  0.51080  0.49032  Biso   1.000  C
  C152     1.0000 0.78610  0.27530  0.49032  Biso   1.000  C
  C153     1.0000 0.48920  0.21390  0.49032  Biso   1.000  C
  C154     1.0000 0.27530  0.48920  0.99032  Biso   1.000  C
  C155     1.0000 0.21390  0.72470  0.99032  Biso   1.000  C
  C156     1.0000 0.51080  0.78610  0.99032  Biso   1.000  C
  C157     1.0000 0.48920  0.27530  0.49032  Biso   1.000  C
  C158     1.0000 0.72470  0.21390  0.49032  Biso   1.000  C
  C159     1.0000 0.78610  0.51080  0.49032  Biso   1.000  C
  C160     1.0000 0.51080  0.72470  0.99032  Biso   1.000  C
  C161     1.0000 0.27530  0.78610  0.99032  Biso   1.000  C
  C162     1.0000 0.21390  0.48920  0.99032  Biso   1.000  C
  C163     1.0000 0.27530  0.48920  0.50968  Biso   1.000  C
  C164     1.0000 0.21390  0.72470  0.50968  Biso   1.000  C
  C165     1.0000 0.51080  0.78610  0.50968  Biso   1.000  C
  C166     1.0000 0.72470  0.51080  0.00968  Biso   1.000  C
  C167     1.0000 0.78610  0.27530  0.00968  Biso   1.000  C
  C168     1.0000 0.48920  0.21390  0.00968  Biso   1.000  C
  H49      1.0000 0.52890  0.68880  0.49600  Biso   1.000  H
  H50      1.0000 0.31120  0.84010  0.49600  Biso   1.000  H
  H51      1.0000 0.15990  0.47110  0.49600  Biso   1.000  H
  H52      1.0000 0.47110  0.31120  0.99600  Biso   1.000  H
  H53      1.0000 0.68880  0.15990  0.99600  Biso   1.000  H
  H54      1.0000 0.84010  0.52890  0.99600  Biso   1.000  H
  H55      1.0000 0.68880  0.52890  0.50400  Biso   1.000  H
  H56      1.0000 0.84010  0.31120  0.50400  Biso   1.000  H
  H57      1.0000 0.47110  0.15990  0.50400  Biso   1.000  H
  H58      1.0000 0.31120  0.47110  0.00400  Biso   1.000  H
  H59      1.0000 0.15990  0.68880  0.00400  Biso   1.000  H
  H60      1.0000 0.52890  0.84010  0.00400  Biso   1.000  H
  H61      1.0000 0.47110  0.31120  0.50400  Biso   1.000  H
  H62      1.0000 0.68880  0.15990  0.50400  Biso   1.000  H
  H63      1.0000 0.84010  0.52890  0.50400  Biso   1.000  H
  H64      1.0000 0.52890  0.68880  0.00400  Biso   1.000  H
  H65      1.0000 0.31120  0.84010  0.00400  Biso   1.000  H
  H66      1.0000 0.15990  0.47110  0.00400  Biso   1.000  H
  H67      1.0000 0.31120  0.47110  0.49600  Biso   1.000  H
  H68      1.0000 0.15990  0.68880  0.49600  Biso   1.000  H
  H69      1.0000 0.52890  0.84010  0.49600  Biso   1.000  H
  H70      1.0000 0.68880  0.52890  0.99600  Biso   1.000  H
  H71      1.0000 0.84010  0.31120  0.99600  Biso   1.000  H
  H72      1.0000 0.47110  0.15990  0.99600  Biso   1.000  H
  N1       1.0000 0.51990  0.75990  0.50060  Biso   1.000  N
  N2       1.0000 0.24010  0.76000  0.50060  Biso   1.000  N
  N3       1.0000 0.24000  0.48010  0.50060  Biso   1.000  N
  N4       1.0000 0.48010  0.24010  0.00060  Biso   1.000  N
  N5       1.0000 0.75990  0.24000  0.00060  Biso   1.000  N
  N6       1.0000 0.76000  0.51990  0.00060  Biso   1.000  N
  N7       1.0000 0.75990  0.51990  0.49940  Biso   1.000  N
  N8       1.0000 0.76000  0.24010  0.49940  Biso   1.000  N
  N9       1.0000 0.48010  0.24000  0.49940  Biso   1.000  N
  N10      1.0000 0.24010  0.48010  0.99940  Biso   1.000  N
  N11      1.0000 0.24000  0.75990  0.99940  Biso   1.000  N
  N12      1.0000 0.51990  0.76000  0.99940  Biso   1.000  N
  C169     1.0000 0.53870  0.76930  0.48340  Biso   1.000  C
  C170     1.0000 0.23070  0.76940  0.48340  Biso   1.000  C
  C171     1.0000 0.23060  0.46130  0.48340  Biso   1.000  C
  C172     1.0000 0.46130  0.23070  0.98340  Biso   1.000  C
  C173     1.0000 0.76930  0.23060  0.98340  Biso   1.000  C
  C174     1.0000 0.76940  0.53870  0.98340  Biso   1.000  C
  C175     1.0000 0.76930  0.53870  0.51660  Biso   1.000  C
  C176     1.0000 0.76940  0.23070  0.51660  Biso   1.000  C
  C177     1.0000 0.46130  0.23060  0.51660  Biso   1.000  C
  C178     1.0000 0.23070  0.46130  0.01660  Biso   1.000  C
  C179     1.0000 0.23060  0.76930  0.01660  Biso   1.000  C
  C180     1.0000 0.53870  0.76940  0.01660  Biso   1.000  C
  C181     1.0000 0.57440  0.80730  0.48030  Biso   1.000  C
  C182     1.0000 0.19270  0.76710  0.48030  Biso   1.000  C
  C183     1.0000 0.23290  0.42560  0.48030  Biso   1.000  C
  C184     1.0000 0.42560  0.19270  0.98030  Biso   1.000  C
  C185     1.0000 0.80730  0.23290  0.98030  Biso   1.000  C
  C186     1.0000 0.76710  0.57440  0.98030  Biso   1.000  C
  C187     1.0000 0.80730  0.57440  0.51970  Biso   1.000  C
  C188     1.0000 0.76710  0.19270  0.51970  Biso   1.000  C
  C189     1.0000 0.42560  0.23290  0.51970  Biso   1.000  C
  C190     1.0000 0.19270  0.42560  0.01970  Biso   1.000  C
  C191     1.0000 0.23290  0.80730  0.01970  Biso   1.000  C
  C192     1.0000 0.57440  0.76710  0.01970  Biso   1.000  C
  C193     1.0000 0.42560  0.19270  0.51970  Biso   1.000  C
  C194     1.0000 0.80730  0.23290  0.51970  Biso   1.000  C
  C195     1.0000 0.76710  0.57440  0.51970  Biso   1.000  C
  C196     1.0000 0.57440  0.80730  0.01970  Biso   1.000  C
  C197     1.0000 0.19270  0.76710  0.01970  Biso   1.000  C
  C198     1.0000 0.23290  0.42560  0.01970  Biso   1.000  C
  C199     1.0000 0.19270  0.42560  0.48030  Biso   1.000  C
  C200     1.0000 0.23290  0.80730  0.48030  Biso   1.000  C
  C201     1.0000 0.57440  0.76710  0.48030  Biso   1.000  C
  C202     1.0000 0.80730  0.57440  0.98030  Biso   1.000  C
  C203     1.0000 0.76710  0.19270  0.98030  Biso   1.000  C
  C204     1.0000 0.42560  0.23290  0.98030  Biso   1.000  C
  H73      1.0000 0.58650  0.82700  0.48970  Biso   1.000  H
  H74      1.0000 0.17300  0.75950  0.48970  Biso   1.000  H
  H75      1.0000 0.24050  0.41350  0.48970  Biso   1.000  H
  H76      1.0000 0.41350  0.17300  0.98970  Biso   1.000  H
  H77      1.0000 0.82700  0.24050  0.98970  Biso   1.000  H
  H78      1.0000 0.75950  0.58650  0.98970  Biso   1.000  H
  H79      1.0000 0.82700  0.58650  0.51030  Biso   1.000  H
  H80      1.0000 0.75950  0.17300  0.51030  Biso   1.000  H
  H81      1.0000 0.41350  0.24050  0.51030  Biso   1.000  H
  H82      1.0000 0.17300  0.41350  0.01030  Biso   1.000  H
  H83      1.0000 0.24050  0.82700  0.01030  Biso   1.000  H
  H84      1.0000 0.58650  0.75950  0.01030  Biso   1.000  H
  H85      1.0000 0.41350  0.17300  0.51030  Biso   1.000  H
  H86      1.0000 0.82700  0.24050  0.51030  Biso   1.000  H
  H87      1.0000 0.75950  0.58650  0.51030  Biso   1.000  H
  H88      1.0000 0.58650  0.82700  0.01030  Biso   1.000  H
  H89      1.0000 0.17300  0.75950  0.01030  Biso   1.000  H
  H90      1.0000 0.24050  0.41350  0.01030  Biso   1.000  H
  H91      1.0000 0.17300  0.41350  0.48970  Biso   1.000  H
  H92      1.0000 0.24050  0.82700  0.48970  Biso   1.000  H
  H93      1.0000 0.58650  0.75950  0.48970  Biso   1.000  H
  H94      1.0000 0.82700  0.58650  0.98970  Biso   1.000  H
  H95      1.0000 0.75950  0.17300  0.98970  Biso   1.000  H
  H96      1.0000 0.41350  0.24050  0.98970  Biso   1.000  H
  C205     1.0000 0.59250  0.81640  0.46330  Biso   1.000  C
  C206     1.0000 0.18360  0.77610  0.46330  Biso   1.000  C
  C207     1.0000 0.22390  0.40750  0.46330  Biso   1.000  C
  C208     1.0000 0.40750  0.18360  0.96330  Biso   1.000  C
  C209     1.0000 0.81640  0.22390  0.96330  Biso   1.000  C
  C210     1.0000 0.77610  0.59250  0.96330  Biso   1.000  C
  C211     1.0000 0.81640  0.59250  0.53670  Biso   1.000  C
  C212     1.0000 0.77610  0.18360  0.53670  Biso   1.000  C
  C213     1.0000 0.40750  0.22390  0.53670  Biso   1.000  C
  C214     1.0000 0.18360  0.40750  0.03670  Biso   1.000  C
  C215     1.0000 0.22390  0.81640  0.03670  Biso   1.000  C
  C216     1.0000 0.59250  0.77610  0.03670  Biso   1.000  C
  C217     1.0000 0.40750  0.18360  0.53670  Biso   1.000  C
  C218     1.0000 0.81640  0.22390  0.53670  Biso   1.000  C
  C219     1.0000 0.77610  0.59250  0.53670  Biso   1.000  C
  C220     1.0000 0.59250  0.81640  0.03670  Biso   1.000  C
  C221     1.0000 0.18360  0.77610  0.03670  Biso   1.000  C
  C222     1.0000 0.22390  0.40750  0.03670  Biso   1.000  C
  C223     1.0000 0.18360  0.40750  0.46330  Biso   1.000  C
  C224     1.0000 0.22390  0.81640  0.46330  Biso   1.000  C
  C225     1.0000 0.59250  0.77610  0.46330  Biso   1.000  C
  C226     1.0000 0.81640  0.59250  0.96330  Biso   1.000  C
  C227     1.0000 0.77610  0.18360  0.96330  Biso   1.000  C
  C228     1.0000 0.40750  0.22390  0.96330  Biso   1.000  C
  H97      1.0000 0.61690  0.84230  0.46120  Biso   1.000  H
  H98      1.0000 0.15770  0.77460  0.46120  Biso   1.000  H
  H99      1.0000 0.22540  0.38310  0.46120  Biso   1.000  H
  H100     1.0000 0.38310  0.15770  0.96120  Biso   1.000  H
  H101     1.0000 0.84230  0.22540  0.96120  Biso   1.000  H
  H102     1.0000 0.77460  0.61690  0.96120  Biso   1.000  H
  H103     1.0000 0.84230  0.61690  0.53880  Biso   1.000  H
  H104     1.0000 0.77460  0.15770  0.53880  Biso   1.000  H
  H105     1.0000 0.38310  0.22540  0.53880  Biso   1.000  H
  H106     1.0000 0.15770  0.38310  0.03880  Biso   1.000  H
  H107     1.0000 0.22540  0.84230  0.03880  Biso   1.000  H
  H108     1.0000 0.61690  0.77460  0.03880  Biso   1.000  H
  H109     1.0000 0.38310  0.15770  0.53880  Biso   1.000  H
  H110     1.0000 0.84230  0.22540  0.53880  Biso   1.000  H
  H111     1.0000 0.77460  0.61690  0.53880  Biso   1.000  H
  H112     1.0000 0.61690  0.84230  0.03880  Biso   1.000  H
  H113     1.0000 0.15770  0.77460  0.03880  Biso   1.000  H
  H114     1.0000 0.22540  0.38310  0.03880  Biso   1.000  H
  H115     1.0000 0.15770  0.38310  0.46120  Biso   1.000  H
  H116     1.0000 0.22540  0.84230  0.46120  Biso   1.000  H
  H117     1.0000 0.61690  0.77460  0.46120  Biso   1.000  H
  H118     1.0000 0.84230  0.61690  0.96120  Biso   1.000  H
  H119     1.0000 0.77460  0.15770  0.96120  Biso   1.000  H
  H120     1.0000 0.38310  0.22540  0.96120  Biso   1.000  H
  C229     1.0000 0.57490  0.78750  0.44950  Biso   1.000  C
  C230     1.0000 0.21250  0.78740  0.44950  Biso   1.000  C
  C231     1.0000 0.21260  0.42510  0.44950  Biso   1.000  C
  C232     1.0000 0.42510  0.21250  0.94950  Biso   1.000  C
  C233     1.0000 0.78750  0.21260  0.94950  Biso   1.000  C
  C234     1.0000 0.78740  0.57490  0.94950  Biso   1.000  C
  C235     1.0000 0.78750  0.57490  0.55050  Biso   1.000  C
  C236     1.0000 0.78740  0.21250  0.55050  Biso   1.000  C
  C237     1.0000 0.42510  0.21260  0.55050  Biso   1.000  C
  C238     1.0000 0.21250  0.42510  0.05050  Biso   1.000  C
  C239     1.0000 0.21260  0.78750  0.05050  Biso   1.000  C
  C240     1.0000 0.57490  0.78740  0.05050  Biso   1.000  C
  C241     1.0000 0.58930  0.79460  0.43100  Biso   1.000  C
  C242     1.0000 0.20540  0.79470  0.43100  Biso   1.000  C
  C243     1.0000 0.20530  0.41070  0.43100  Biso   1.000  C
  C244     1.0000 0.41070  0.20540  0.93100  Biso   1.000  C
  C245     1.0000 0.79460  0.20530  0.93100  Biso   1.000  C
  C246     1.0000 0.79470  0.58930  0.93100  Biso   1.000  C
  C247     1.0000 0.79460  0.58930  0.56900  Biso   1.000  C
  C248     1.0000 0.79470  0.20540  0.56900  Biso   1.000  C
  C249     1.0000 0.41070  0.20530  0.56900  Biso   1.000  C
  C250     1.0000 0.20540  0.41070  0.06900  Biso   1.000  C
  C251     1.0000 0.20530  0.79460  0.06900  Biso   1.000  C
  C252     1.0000 0.58930  0.79470  0.06900  Biso   1.000  C
  C253     1.0000 0.60850  0.80420  0.41710  Biso   1.000  C
  C254     1.0000 0.19580  0.80430  0.41710  Biso   1.000  C
  C255     1.0000 0.19570  0.39150  0.41710  Biso   1.000  C
  C256     1.0000 0.39150  0.19580  0.91710  Biso   1.000  C
  C257     1.0000 0.80420  0.19570  0.91710  Biso   1.000  C
  C258     1.0000 0.80430  0.60850  0.91710  Biso   1.000  C
  C259     1.0000 0.80420  0.60850  0.58290  Biso   1.000  C
  C260     1.0000 0.80430  0.19580  0.58290  Biso   1.000  C
  C261     1.0000 0.39150  0.19570  0.58290  Biso   1.000  C
  C262     1.0000 0.19580  0.39150  0.08290  Biso   1.000  C
  C263     1.0000 0.19570  0.80420  0.08290  Biso   1.000  C
  C264     1.0000 0.60850  0.80430  0.08290  Biso   1.000  C
  C265     1.0000 0.62630  0.81320  0.39950  Biso   1.000  C
  C266     1.0000 0.18680  0.81310  0.39950  Biso   1.000  C
  C267     1.0000 0.18690  0.37370  0.39950  Biso   1.000  C
  C268     1.0000 0.37370  0.18680  0.89950  Biso   1.000  C
  C269     1.0000 0.81320  0.18690  0.89950  Biso   1.000  C
  C270     1.0000 0.81310  0.62630  0.89950  Biso   1.000  C
  C271     1.0000 0.81320  0.62630  0.60050  Biso   1.000  C
  C272     1.0000 0.81310  0.18680  0.60050  Biso   1.000  C
  C273     1.0000 0.37370  0.18690  0.60050  Biso   1.000  C
  C274     1.0000 0.18680  0.37370  0.10050  Biso   1.000  C
  C275     1.0000 0.18690  0.81320  0.10050  Biso   1.000  C
  C276     1.0000 0.62630  0.81310  0.10050  Biso   1.000  C
  C277     1.0000 0.63380  0.78550  0.39130  Biso   1.000  C
  C278     1.0000 0.21450  0.84830  0.39130  Biso   1.000  C
  C279     1.0000 0.15170  0.36620  0.39130  Biso   1.000  C
  C280     1.0000 0.36620  0.21450  0.89130  Biso   1.000  C
  C281     1.0000 0.78550  0.15170  0.89130  Biso   1.000  C
  C282     1.0000 0.84830  0.63380  0.89130  Biso   1.000  C
  C283     1.0000 0.78550  0.63380  0.60870  Biso   1.000  C
  C284     1.0000 0.84830  0.21450  0.60870  Biso   1.000  C
  C285     1.0000 0.36620  0.15170  0.60870  Biso   1.000  C
  C286     1.0000 0.21450  0.36620  0.10870  Biso   1.000  C
  C287     1.0000 0.15170  0.78550  0.10870  Biso   1.000  C
  C288     1.0000 0.63380  0.84830  0.10870  Biso   1.000  C
  C289     1.0000 0.36620  0.21450  0.60870  Biso   1.000  C
  C290     1.0000 0.78550  0.15170  0.60870  Biso   1.000  C
  C291     1.0000 0.84830  0.63380  0.60870  Biso   1.000  C
  C292     1.0000 0.63380  0.78550  0.10870  Biso   1.000  C
  C293     1.0000 0.21450  0.84830  0.10870  Biso   1.000  C
  C294     1.0000 0.15170  0.36620  0.10870  Biso   1.000  C
  C295     1.0000 0.21450  0.36620  0.39130  Biso   1.000  C
  C296     1.0000 0.15170  0.78550  0.39130  Biso   1.000  C
  C297     1.0000 0.63380  0.84830  0.39130  Biso   1.000  C
  C298     1.0000 0.78550  0.63380  0.89130  Biso   1.000  C
  C299     1.0000 0.84830  0.21450  0.89130  Biso   1.000  C
  C300     1.0000 0.36620  0.15170  0.89130  Biso   1.000  C
  H121     1.0000 0.62810  0.76090  0.39750  Biso   1.000  H
  H122     1.0000 0.23910  0.86720  0.39750  Biso   1.000  H
  H123     1.0000 0.13280  0.37190  0.39750  Biso   1.000  H
  H124     1.0000 0.37190  0.23910  0.89750  Biso   1.000  H
  H125     1.0000 0.76090  0.13280  0.89750  Biso   1.000  H
  H126     1.0000 0.86720  0.62810  0.89750  Biso   1.000  H
  H127     1.0000 0.76090  0.62810  0.60250  Biso   1.000  H
  H128     1.0000 0.86720  0.23910  0.60250  Biso   1.000  H
  H129     1.0000 0.37190  0.13280  0.60250  Biso   1.000  H
  H130     1.0000 0.23910  0.37190  0.10250  Biso   1.000  H
  H131     1.0000 0.13280  0.76090  0.10250  Biso   1.000  H
  H132     1.0000 0.62810  0.86720  0.10250  Biso   1.000  H
  H133     1.0000 0.37190  0.23910  0.60250  Biso   1.000  H
  H134     1.0000 0.76090  0.13280  0.60250  Biso   1.000  H
  H135     1.0000 0.86720  0.62810  0.60250  Biso   1.000  H
  H136     1.0000 0.62810  0.76090  0.10250  Biso   1.000  H
  H137     1.0000 0.23910  0.86720  0.10250  Biso   1.000  H
  H138     1.0000 0.13280  0.37190  0.10250  Biso   1.000  H
  H139     1.0000 0.23910  0.37190  0.39750  Biso   1.000  H
  H140     1.0000 0.13280  0.76090  0.39750  Biso   1.000  H
  H141     1.0000 0.62810  0.86720  0.39750  Biso   1.000  H
  H142     1.0000 0.76090  0.62810  0.89750  Biso   1.000  H
  H143     1.0000 0.86720  0.23910  0.89750  Biso   1.000  H
  H144     1.0000 0.37190  0.13280  0.89750  Biso   1.000  H
  C301     1.0000 0.65010  0.79240  0.37350  Biso   1.000  C
  C302     1.0000 0.20760  0.85770  0.37350  Biso   1.000  C
  C303     1.0000 0.14230  0.34990  0.37350  Biso   1.000  C
  C304     1.0000 0.34990  0.20760  0.87350  Biso   1.000  C
  C305     1.0000 0.79240  0.14230  0.87350  Biso   1.000  C
  C306     1.0000 0.85770  0.65010  0.87350  Biso   1.000  C
  C307     1.0000 0.79240  0.65010  0.62650  Biso   1.000  C
  C308     1.0000 0.85770  0.20760  0.62650  Biso   1.000  C
  C309     1.0000 0.34990  0.14230  0.62650  Biso   1.000  C
  C310     1.0000 0.20760  0.34990  0.12650  Biso   1.000  C
  C311     1.0000 0.14230  0.79240  0.12650  Biso   1.000  C
  C312     1.0000 0.65010  0.85770  0.12650  Biso   1.000  C
  C313     1.0000 0.34990  0.20760  0.62650  Biso   1.000  C
  C314     1.0000 0.79240  0.14230  0.62650  Biso   1.000  C
  C315     1.0000 0.85770  0.65010  0.62650  Biso   1.000  C
  C316     1.0000 0.65010  0.79240  0.12650  Biso   1.000  C
  C317     1.0000 0.20760  0.85770  0.12650  Biso   1.000  C
  C318     1.0000 0.14230  0.34990  0.12650  Biso   1.000  C
  C319     1.0000 0.20760  0.34990  0.37350  Biso   1.000  C
  C320     1.0000 0.14230  0.79240  0.37350  Biso   1.000  C
  C321     1.0000 0.65010  0.85770  0.37350  Biso   1.000  C
  C322     1.0000 0.79240  0.65010  0.87350  Biso   1.000  C
  C323     1.0000 0.85770  0.20760  0.87350  Biso   1.000  C
  C324     1.0000 0.34990  0.14230  0.87350  Biso   1.000  C
  C325     1.0000 0.65810  0.82900  0.36470  Biso   1.000  C
  C326     1.0000 0.17100  0.82910  0.36470  Biso   1.000  C
  C327     1.0000 0.17090  0.34190  0.36470  Biso   1.000  C
  C328     1.0000 0.34190  0.17100  0.86470  Biso   1.000  C
  C329     1.0000 0.82900  0.17090  0.86470  Biso   1.000  C
  C330     1.0000 0.82910  0.65810  0.86470  Biso   1.000  C
  C331     1.0000 0.82900  0.65810  0.63530  Biso   1.000  C
  C332     1.0000 0.82910  0.17100  0.63530  Biso   1.000  C
  C333     1.0000 0.34190  0.17090  0.63530  Biso   1.000  C
  C334     1.0000 0.17100  0.34190  0.13530  Biso   1.000  C
  C335     1.0000 0.17090  0.82900  0.13530  Biso   1.000  C
  C336     1.0000 0.65810  0.82910  0.13530  Biso   1.000  C
  C337     1.0000 0.65280  0.76120  0.36470  Biso   1.000  C
  C338     1.0000 0.23880  0.89160  0.36470  Biso   1.000  C
  C339     1.0000 0.10840  0.34720  0.36470  Biso   1.000  C
  C340     1.0000 0.34720  0.23880  0.86470  Biso   1.000  C
  C341     1.0000 0.76120  0.10840  0.86470  Biso   1.000  C
  C342     1.0000 0.89160  0.65280  0.86470  Biso   1.000  C
  C343     1.0000 0.76120  0.65280  0.63530  Biso   1.000  C
  C344     1.0000 0.89160  0.23880  0.63530  Biso   1.000  C
  C345     1.0000 0.34720  0.10840  0.63530  Biso   1.000  C
  C346     1.0000 0.23880  0.34720  0.13530  Biso   1.000  C
  C347     1.0000 0.10840  0.76120  0.13530  Biso   1.000  C
  C348     1.0000 0.65280  0.89160  0.13530  Biso   1.000  C
  C349     1.0000 0.34720  0.23880  0.63530  Biso   1.000  C
  C350     1.0000 0.76120  0.10840  0.63530  Biso   1.000  C
  C351     1.0000 0.89160  0.65280  0.63530  Biso   1.000  C
  C352     1.0000 0.65280  0.76120  0.13530  Biso   1.000  C
  C353     1.0000 0.23880  0.89160  0.13530  Biso   1.000  C
  C354     1.0000 0.10840  0.34720  0.13530  Biso   1.000  C
  C355     1.0000 0.23880  0.34720  0.36470  Biso   1.000  C
  C356     1.0000 0.10840  0.76120  0.36470  Biso   1.000  C
  C357     1.0000 0.65280  0.89160  0.36470  Biso   1.000  C
  C358     1.0000 0.76120  0.65280  0.86470  Biso   1.000  C
  C359     1.0000 0.89160  0.23880  0.86470  Biso   1.000  C
  C360     1.0000 0.34720  0.10840  0.86470  Biso   1.000  C
  H145     1.0000 0.66890  0.83440  0.35280  Biso   1.000  H
  H146     1.0000 0.16560  0.83450  0.35280  Biso   1.000  H
  H147     1.0000 0.16550  0.33110  0.35280  Biso   1.000  H
  H148     1.0000 0.33110  0.16560  0.85280  Biso   1.000  H
  H149     1.0000 0.83440  0.16550  0.85280  Biso   1.000  H
  H150     1.0000 0.83450  0.66890  0.85280  Biso   1.000  H
  H151     1.0000 0.83440  0.66890  0.64720  Biso   1.000  H
  H152     1.0000 0.83450  0.16560  0.64720  Biso   1.000  H
  H153     1.0000 0.33110  0.16550  0.64720  Biso   1.000  H
  H154     1.0000 0.16560  0.33110  0.14720  Biso   1.000  H
  H155     1.0000 0.16550  0.83440  0.14720  Biso   1.000  H
  H156     1.0000 0.66890  0.83450  0.14720  Biso   1.000  H
  C361     1.0000 0.65540  0.73360  0.35890  Biso   1.000  C
  C362     1.0000 0.26640  0.92180  0.35890  Biso   1.000  C
  C363     1.0000 0.07820  0.34460  0.35890  Biso   1.000  C
  C364     1.0000 0.34460  0.26640  0.85890  Biso   1.000  C
  C365     1.0000 0.73360  0.07820  0.85890  Biso   1.000  C
  C366     1.0000 0.92180  0.65540  0.85890  Biso   1.000  C
  C367     1.0000 0.73360  0.65540  0.64110  Biso   1.000  C
  C368     1.0000 0.92180  0.26640  0.64110  Biso   1.000  C
  C369     1.0000 0.34460  0.07820  0.64110  Biso   1.000  C
  C370     1.0000 0.26640  0.34460  0.14110  Biso   1.000  C
  C371     1.0000 0.07820  0.73360  0.14110  Biso   1.000  C
  C372     1.0000 0.65540  0.92180  0.14110  Biso   1.000  C
  C373     1.0000 0.34460  0.26640  0.64110  Biso   1.000  C
  C374     1.0000 0.73360  0.07820  0.64110  Biso   1.000  C
  C375     1.0000 0.92180  0.65540  0.64110  Biso   1.000  C
  C376     1.0000 0.65540  0.73360  0.14110  Biso   1.000  C
  C377     1.0000 0.26640  0.92180  0.14110  Biso   1.000  C
  C378     1.0000 0.07820  0.34460  0.14110  Biso   1.000  C
  C379     1.0000 0.26640  0.34460  0.35890  Biso   1.000  C
  C380     1.0000 0.07820  0.73360  0.35890  Biso   1.000  C
  C381     1.0000 0.65540  0.92180  0.35890  Biso   1.000  C
  C382     1.0000 0.73360  0.65540  0.85890  Biso   1.000  C
  C383     1.0000 0.92180  0.26640  0.85890  Biso   1.000  C
  C384     1.0000 0.34460  0.07820  0.85890  Biso   1.000  C
  C385     1.0000 0.66360  0.70120  0.35365  Biso   1.000  C
  C386     1.0000 0.29880  0.96240  0.35365  Biso   1.000  C
  C387     1.0000 0.03760  0.33640  0.35365  Biso   1.000  C
  C388     1.0000 0.33640  0.29880  0.85365  Biso   1.000  C
  C389     1.0000 0.70120  0.03760  0.85365  Biso   1.000  C
  C390     1.0000 0.96240  0.66360  0.85365  Biso   1.000  C
  C391     1.0000 0.70120  0.66360  0.64635  Biso   1.000  C
  C392     1.0000 0.96240  0.29880  0.64635  Biso   1.000  C
  C393     1.0000 0.33640  0.03760  0.64635  Biso   1.000  C
  C394     1.0000 0.29880  0.33640  0.14635  Biso   1.000  C
  C395     1.0000 0.03760  0.70120  0.14635  Biso   1.000  C
  C396     1.0000 0.66360  0.96240  0.14635  Biso   1.000  C
  C397     1.0000 0.33640  0.29880  0.64635  Biso   1.000  C
  C398     1.0000 0.70120  0.03760  0.64635  Biso   1.000  C
  C399     1.0000 0.96240  0.66360  0.64635  Biso   1.000  C
  C400     1.0000 0.66360  0.70120  0.14635  Biso   1.000  C
  C401     1.0000 0.29880  0.96240  0.14635  Biso   1.000  C
  C402     1.0000 0.03760  0.33640  0.14635  Biso   1.000  C
  C403     1.0000 0.29880  0.33640  0.35365  Biso   1.000  C
  C404     1.0000 0.03760  0.70120  0.35365  Biso   1.000  C
  C405     1.0000 0.66360  0.96240  0.35365  Biso   1.000  C
  C406     1.0000 0.70120  0.66360  0.85365  Biso   1.000  C
  C407     1.0000 0.96240  0.29880  0.85365  Biso   1.000  C
  C408     1.0000 0.33640  0.03760  0.85365  Biso   1.000  C
  C409     1.0000 0.68240  0.70010  0.33770  Biso   1.000  C
  C410     1.0000 0.29990  0.98230  0.33770  Biso   1.000  C
  C411     1.0000 0.01770  0.31760  0.33770  Biso   1.000  C
  C412     1.0000 0.31760  0.29990  0.83770  Biso   1.000  C
  C413     1.0000 0.70010  0.01770  0.83770  Biso   1.000  C
  C414     1.0000 0.98230  0.68240  0.83770  Biso   1.000  C
  C415     1.0000 0.70010  0.68240  0.66230  Biso   1.000  C
  C416     1.0000 0.98230  0.29990  0.66230  Biso   1.000  C
  C417     1.0000 0.31760  0.01770  0.66230  Biso   1.000  C
  C418     1.0000 0.29990  0.31760  0.16230  Biso   1.000  C
  C419     1.0000 0.01770  0.70010  0.16230  Biso   1.000  C
  C420     1.0000 0.68240  0.98230  0.16230  Biso   1.000  C
  C421     1.0000 0.31760  0.29990  0.66230  Biso   1.000  C
  C422     1.0000 0.70010  0.01770  0.66230  Biso   1.000  C
  C423     1.0000 0.98230  0.68240  0.66230  Biso   1.000  C
  C424     1.0000 0.68240  0.70010  0.16230  Biso   1.000  C
  C425     1.0000 0.29990  0.98230  0.16230  Biso   1.000  C
  C426     1.0000 0.01770  0.31760  0.16230  Biso   1.000  C
  C427     1.0000 0.29990  0.31760  0.33770  Biso   1.000  C
  C428     1.0000 0.01770  0.70010  0.33770  Biso   1.000  C
  C429     1.0000 0.68240  0.98230  0.33770  Biso   1.000  C
  C430     1.0000 0.70010  0.68240  0.83770  Biso   1.000  C
  C431     1.0000 0.98230  0.29990  0.83770  Biso   1.000  C
  C432     1.0000 0.31760  0.01770  0.83770  Biso   1.000  C
  C433     1.0000 0.64840  0.66790  0.36549  Biso   1.000  C
  C434     1.0000 0.33210  0.98050  0.36549  Biso   1.000  C
  C435     1.0000 0.01950  0.35160  0.36549  Biso   1.000  C
  C436     1.0000 0.35160  0.33210  0.86549  Biso   1.000  C
  C437     1.0000 0.66790  0.01950  0.86549  Biso   1.000  C
  C438     1.0000 0.98050  0.64840  0.86549  Biso   1.000  C
  C439     1.0000 0.66790  0.64840  0.63451  Biso   1.000  C
  C440     1.0000 0.98050  0.33210  0.63451  Biso   1.000  C
  C441     1.0000 0.35160  0.01950  0.63451  Biso   1.000  C
  C442     1.0000 0.33210  0.35160  0.13451  Biso   1.000  C
  C443     1.0000 0.01950  0.66790  0.13451  Biso   1.000  C
  C444     1.0000 0.64840  0.98050  0.13451  Biso   1.000  C
  C445     1.0000 0.35160  0.33210  0.63451  Biso   1.000  C
  C446     1.0000 0.66790  0.01950  0.63451  Biso   1.000  C
  C447     1.0000 0.98050  0.64840  0.63451  Biso   1.000  C
  C448     1.0000 0.64840  0.66790  0.13451  Biso   1.000  C
  C449     1.0000 0.33210  0.98050  0.13451  Biso   1.000  C
  C450     1.0000 0.01950  0.35160  0.13451  Biso   1.000  C
  C451     1.0000 0.33210  0.35160  0.36549  Biso   1.000  C
  C452     1.0000 0.01950  0.66790  0.36549  Biso   1.000  C
  C453     1.0000 0.64840  0.98050  0.36549  Biso   1.000  C
  C454     1.0000 0.66790  0.64840  0.86549  Biso   1.000  C
  C455     1.0000 0.98050  0.33210  0.86549  Biso   1.000  C
  C456     1.0000 0.35160  0.01950  0.86549  Biso   1.000  C
  C457     1.0000 0.68610  0.66560  0.33359  Biso   1.000  C
  C458     1.0000 0.33440  0.02050  0.33359  Biso   1.000  C
  C459     1.0000 0.97950  0.31390  0.33359  Biso   1.000  C
  C460     1.0000 0.31390  0.33440  0.83359  Biso   1.000  C
  C461     1.0000 0.66560  0.97950  0.83359  Biso   1.000  C
  C462     1.0000 0.02050  0.68610  0.83359  Biso   1.000  C
  C463     1.0000 0.66560  0.68610  0.66641  Biso   1.000  C
  C464     1.0000 0.02050  0.33440  0.66641  Biso   1.000  C
  C465     1.0000 0.31390  0.97950  0.66641  Biso   1.000  C
  C466     1.0000 0.33440  0.31390  0.16641  Biso   1.000  C
  C467     1.0000 0.97950  0.66560  0.16641  Biso   1.000  C
  C468     1.0000 0.68610  0.02050  0.16641  Biso   1.000  C
  C469     1.0000 0.31390  0.33440  0.66641  Biso   1.000  C
  C470     1.0000 0.66560  0.97950  0.66641  Biso   1.000  C
  C471     1.0000 0.02050  0.68610  0.66641  Biso   1.000  C
  C472     1.0000 0.68610  0.66560  0.16641  Biso   1.000  C
  C473     1.0000 0.33440  0.02050  0.16641  Biso   1.000  C
  C474     1.0000 0.97950  0.31390  0.16641  Biso   1.000  C
  C475     1.0000 0.33440  0.31390  0.33359  Biso   1.000  C
  C476     1.0000 0.97950  0.66560  0.33359  Biso   1.000  C
  C477     1.0000 0.68610  0.02050  0.33359  Biso   1.000  C
  C478     1.0000 0.66560  0.68610  0.83359  Biso   1.000  C
  C479     1.0000 0.02050  0.33440  0.83359  Biso   1.000  C
  C480     1.0000 0.31390  0.97950  0.83359  Biso   1.000  C
  H157     1.0000 0.69270  0.72290  0.32960  Biso   1.000  H
  H158     1.0000 0.27710  0.96980  0.32960  Biso   1.000  H
  H159     1.0000 0.03020  0.30730  0.32960  Biso   1.000  H
  H160     1.0000 0.30730  0.27710  0.82960  Biso   1.000  H
  H161     1.0000 0.72290  0.03020  0.82960  Biso   1.000  H
  H162     1.0000 0.96980  0.69270  0.82960  Biso   1.000  H
  H163     1.0000 0.72290  0.69270  0.67040  Biso   1.000  H
  H164     1.0000 0.96980  0.27710  0.67040  Biso   1.000  H
  H165     1.0000 0.30730  0.03020  0.67040  Biso   1.000  H
  H166     1.0000 0.27710  0.30730  0.17040  Biso   1.000  H
  H167     1.0000 0.03020  0.72290  0.17040  Biso   1.000  H
  H168     1.0000 0.69270  0.96980  0.17040  Biso   1.000  H
  H169     1.0000 0.30730  0.27710  0.67040  Biso   1.000  H
  H170     1.0000 0.72290  0.03020  0.67040  Biso   1.000  H
  H171     1.0000 0.96980  0.69270  0.67040  Biso   1.000  H
  H172     1.0000 0.69270  0.72290  0.17040  Biso   1.000  H
  H173     1.0000 0.27710  0.96980  0.17040  Biso   1.000  H
  H174     1.0000 0.03020  0.30730  0.17040  Biso   1.000  H
  H175     1.0000 0.27710  0.30730  0.32960  Biso   1.000  H
  H176     1.0000 0.03020  0.72290  0.32960  Biso   1.000  H
  H177     1.0000 0.69270  0.96980  0.32960  Biso   1.000  H
  H178     1.0000 0.72290  0.69270  0.82960  Biso   1.000  H
  H179     1.0000 0.96980  0.27710  0.82960  Biso   1.000  H
  H180     1.0000 0.30730  0.03020  0.82960  Biso   1.000  H
  H181     1.0000 0.63550  0.66870  0.37640  Biso   1.000  H
  H182     1.0000 0.33130  0.96680  0.37640  Biso   1.000  H
  H183     1.0000 0.03320  0.36450  0.37640  Biso   1.000  H
  H184     1.0000 0.36450  0.33130  0.87640  Biso   1.000  H
  H185     1.0000 0.66870  0.03320  0.87640  Biso   1.000  H
  H186     1.0000 0.96680  0.63550  0.87640  Biso   1.000  H
  H187     1.0000 0.66870  0.63550  0.62360  Biso   1.000  H
  H188     1.0000 0.96680  0.33130  0.62360  Biso   1.000  H
  H189     1.0000 0.36450  0.03320  0.62360  Biso   1.000  H
  H190     1.0000 0.33130  0.36450  0.12360  Biso   1.000  H
  H191     1.0000 0.03320  0.66870  0.12360  Biso   1.000  H
  H192     1.0000 0.63550  0.96680  0.12360  Biso   1.000  H
  H193     1.0000 0.36450  0.33130  0.62360  Biso   1.000  H
  H194     1.0000 0.66870  0.03320  0.62360  Biso   1.000  H
  H195     1.0000 0.96680  0.63550  0.62360  Biso   1.000  H
  H196     1.0000 0.63550  0.66870  0.12360  Biso   1.000  H
  H197     1.0000 0.33130  0.96680  0.12360  Biso   1.000  H
  H198     1.0000 0.03320  0.36450  0.12360  Biso   1.000  H
  H199     1.0000 0.33130  0.36450  0.37640  Biso   1.000  H
  H200     1.0000 0.03320  0.66870  0.37640  Biso   1.000  H
  H201     1.0000 0.63550  0.96680  0.37640  Biso   1.000  H
  H202     1.0000 0.66870  0.63550  0.87640  Biso   1.000  H
  H203     1.0000 0.96680  0.33130  0.87640  Biso   1.000  H
  H204     1.0000 0.36450  0.03320  0.87640  Biso   1.000  H
  C481     1.0000 0.65210  0.63340  0.36138  Biso   1.000  C
  C482     1.0000 0.36660  0.01870  0.36138  Biso   1.000  C
  C483     1.0000 0.98130  0.34790  0.36138  Biso   1.000  C
  C484     1.0000 0.34790  0.36660  0.86138  Biso   1.000  C
  C485     1.0000 0.63340  0.98130  0.86138  Biso   1.000  C
  C486     1.0000 0.01870  0.65210  0.86138  Biso   1.000  C
  C487     1.0000 0.63340  0.65210  0.63862  Biso   1.000  C
  C488     1.0000 0.01870  0.36660  0.63862  Biso   1.000  C
  C489     1.0000 0.34790  0.98130  0.63862  Biso   1.000  C
  C490     1.0000 0.36660  0.34790  0.13862  Biso   1.000  C
  C491     1.0000 0.98130  0.63340  0.13862  Biso   1.000  C
  C492     1.0000 0.65210  0.01870  0.13862  Biso   1.000  C
  C493     1.0000 0.34790  0.36660  0.63862  Biso   1.000  C
  C494     1.0000 0.63340  0.98130  0.63862  Biso   1.000  C
  C495     1.0000 0.01870  0.65210  0.63862  Biso   1.000  C
  C496     1.0000 0.65210  0.63340  0.13862  Biso   1.000  C
  C497     1.0000 0.36660  0.01870  0.13862  Biso   1.000  C
  C498     1.0000 0.98130  0.34790  0.13862  Biso   1.000  C
  C499     1.0000 0.36660  0.34790  0.36138  Biso   1.000  C
  C500     1.0000 0.98130  0.63340  0.36138  Biso   1.000  C
  C501     1.0000 0.65210  0.01870  0.36138  Biso   1.000  C
  C502     1.0000 0.63340  0.65210  0.86138  Biso   1.000  C
  C503     1.0000 0.01870  0.36660  0.86138  Biso   1.000  C
  C504     1.0000 0.34790  0.98130  0.86138  Biso   1.000  C
  C505     1.0000 0.71090  0.66960  0.31752  Biso   1.000  C
  C506     1.0000 0.33040  0.04130  0.31752  Biso   1.000  C
  C507     1.0000 0.95870  0.28910  0.31752  Biso   1.000  C
  C508     1.0000 0.28910  0.33040  0.81752  Biso   1.000  C
  C509     1.0000 0.66960  0.95870  0.81752  Biso   1.000  C
  C510     1.0000 0.04130  0.71090  0.81752  Biso   1.000  C
  C511     1.0000 0.66960  0.71090  0.68248  Biso   1.000  C
  C512     1.0000 0.04130  0.33040  0.68248  Biso   1.000  C
  C513     1.0000 0.28910  0.95870  0.68248  Biso   1.000  C
  C514     1.0000 0.33040  0.28910  0.18248  Biso   1.000  C
  C515     1.0000 0.95870  0.66960  0.18248  Biso   1.000  C
  C516     1.0000 0.71090  0.04130  0.18248  Biso   1.000  C
  C517     1.0000 0.28910  0.33040  0.68248  Biso   1.000  C
  C518     1.0000 0.66960  0.95870  0.68248  Biso   1.000  C
  C519     1.0000 0.04130  0.71090  0.68248  Biso   1.000  C
  C520     1.0000 0.71090  0.66960  0.18248  Biso   1.000  C
  C521     1.0000 0.33040  0.04130  0.18248  Biso   1.000  C
  C522     1.0000 0.95870  0.28910  0.18248  Biso   1.000  C
  C523     1.0000 0.33040  0.28910  0.31752  Biso   1.000  C
  C524     1.0000 0.95870  0.66960  0.31752  Biso   1.000  C
  C525     1.0000 0.71090  0.04130  0.31752  Biso   1.000  C
  C526     1.0000 0.66960  0.71090  0.81752  Biso   1.000  C
  C527     1.0000 0.04130  0.33040  0.81752  Biso   1.000  C
  C528     1.0000 0.28910  0.95870  0.81752  Biso   1.000  C
  C529     1.0000 0.67100  0.63220  0.34543  Biso   1.000  C
  C530     1.0000 0.36780  0.03880  0.34543  Biso   1.000  C
  C531     1.0000 0.96120  0.32900  0.34543  Biso   1.000  C
  C532     1.0000 0.32900  0.36780  0.84543  Biso   1.000  C
  C533     1.0000 0.63220  0.96120  0.84543  Biso   1.000  C
  C534     1.0000 0.03880  0.67100  0.84543  Biso   1.000  C
  C535     1.0000 0.63220  0.67100  0.65457  Biso   1.000  C
  C536     1.0000 0.03880  0.36780  0.65457  Biso   1.000  C
  C537     1.0000 0.32900  0.96120  0.65457  Biso   1.000  C
  C538     1.0000 0.36780  0.32900  0.15457  Biso   1.000  C
  C539     1.0000 0.96120  0.63220  0.15457  Biso   1.000  C
  C540     1.0000 0.67100  0.03880  0.15457  Biso   1.000  C
  C541     1.0000 0.32900  0.36780  0.65457  Biso   1.000  C
  C542     1.0000 0.63220  0.96120  0.65457  Biso   1.000  C
  C543     1.0000 0.03880  0.67100  0.65457  Biso   1.000  C
  C544     1.0000 0.67100  0.63220  0.15457  Biso   1.000  C
  C545     1.0000 0.36780  0.03880  0.15457  Biso   1.000  C
  C546     1.0000 0.96120  0.32900  0.15457  Biso   1.000  C
  C547     1.0000 0.36780  0.32900  0.34543  Biso   1.000  C
  C548     1.0000 0.96120  0.63220  0.34543  Biso   1.000  C
  C549     1.0000 0.67100  0.03880  0.34543  Biso   1.000  C
  C550     1.0000 0.63220  0.67100  0.84543  Biso   1.000  C
  C551     1.0000 0.03880  0.36780  0.84543  Biso   1.000  C
  C552     1.0000 0.32900  0.96120  0.84543  Biso   1.000  C
  C553     1.0000 0.63440  0.59530  0.37420  Biso   1.000  C
  C554     1.0000 0.40470  0.03910  0.37420  Biso   1.000  C
  C555     1.0000 0.96090  0.36560  0.37420  Biso   1.000  C
  C556     1.0000 0.36560  0.40470  0.87420  Biso   1.000  C
  C557     1.0000 0.59530  0.96090  0.87420  Biso   1.000  C
  C558     1.0000 0.03910  0.63440  0.87420  Biso   1.000  C
  C559     1.0000 0.59530  0.63440  0.62580  Biso   1.000  C
  C560     1.0000 0.03910  0.40470  0.62580  Biso   1.000  C
  C561     1.0000 0.36560  0.96090  0.62580  Biso   1.000  C
  C562     1.0000 0.40470  0.36560  0.12580  Biso   1.000  C
  C563     1.0000 0.96090  0.59530  0.12580  Biso   1.000  C
  C564     1.0000 0.63440  0.03910  0.12580  Biso   1.000  C
  C565     1.0000 0.36560  0.40470  0.62580  Biso   1.000  C
  C566     1.0000 0.59530  0.96090  0.62580  Biso   1.000  C
  C567     1.0000 0.03910  0.63440  0.62580  Biso   1.000  C
  C568     1.0000 0.63440  0.59530  0.12580  Biso   1.000  C
  C569     1.0000 0.40470  0.03910  0.12580  Biso   1.000  C
  C570     1.0000 0.96090  0.36560  0.12580  Biso   1.000  C
  C571     1.0000 0.40470  0.36560  0.37420  Biso   1.000  C
  C572     1.0000 0.96090  0.59530  0.37420  Biso   1.000  C
  C573     1.0000 0.63440  0.03910  0.37420  Biso   1.000  C
  C574     1.0000 0.59530  0.63440  0.87420  Biso   1.000  C
  C575     1.0000 0.03910  0.40470  0.87420  Biso   1.000  C
  C576     1.0000 0.36560  0.96090  0.87420  Biso   1.000  C
  C577     1.0000 0.74300  0.70760  0.31147  Biso   1.000  C
  C578     1.0000 0.29240  0.03540  0.31147  Biso   1.000  C
  C579     1.0000 0.96460  0.25700  0.31147  Biso   1.000  C
  C580     1.0000 0.25700  0.29240  0.81147  Biso   1.000  C
  C581     1.0000 0.70760  0.96460  0.81147  Biso   1.000  C
  C582     1.0000 0.03540  0.74300  0.81147  Biso   1.000  C
  C583     1.0000 0.70760  0.74300  0.68853  Biso   1.000  C
  C584     1.0000 0.03540  0.29240  0.68853  Biso   1.000  C
  C585     1.0000 0.25700  0.96460  0.68853  Biso   1.000  C
  C586     1.0000 0.29240  0.25700  0.18853  Biso   1.000  C
  C587     1.0000 0.96460  0.70760  0.18853  Biso   1.000  C
  C588     1.0000 0.74300  0.03540  0.18853  Biso   1.000  C
  C589     1.0000 0.25700  0.29240  0.68853  Biso   1.000  C
  C590     1.0000 0.70760  0.96460  0.68853  Biso   1.000  C
  C591     1.0000 0.03540  0.74300  0.68853  Biso   1.000  C
  C592     1.0000 0.74300  0.70760  0.18853  Biso   1.000  C
  C593     1.0000 0.29240  0.03540  0.18853  Biso   1.000  C
  C594     1.0000 0.96460  0.25700  0.18853  Biso   1.000  C
  C595     1.0000 0.29240  0.25700  0.31147  Biso   1.000  C
  C596     1.0000 0.96460  0.70760  0.31147  Biso   1.000  C
  C597     1.0000 0.74300  0.03540  0.31147  Biso   1.000  C
  C598     1.0000 0.70760  0.74300  0.81147  Biso   1.000  C
  C599     1.0000 0.03540  0.29240  0.81147  Biso   1.000  C
  C600     1.0000 0.25700  0.96460  0.81147  Biso   1.000  C
  C601     1.0000 0.70160  0.63320  0.30848  Biso   1.000  C
  C602     1.0000 0.36680  0.06840  0.30848  Biso   1.000  C
  C603     1.0000 0.93160  0.29840  0.30848  Biso   1.000  C
  C604     1.0000 0.29840  0.36680  0.80848  Biso   1.000  C
  C605     1.0000 0.63320  0.93160  0.80848  Biso   1.000  C
  C606     1.0000 0.06840  0.70160  0.80848  Biso   1.000  C
  C607     1.0000 0.63320  0.70160  0.69152  Biso   1.000  C
  C608     1.0000 0.06840  0.36680  0.69152  Biso   1.000  C
  C609     1.0000 0.29840  0.93160  0.69152  Biso   1.000  C
  C610     1.0000 0.36680  0.29840  0.19152  Biso   1.000  C
  C611     1.0000 0.93160  0.63320  0.19152  Biso   1.000  C
  C612     1.0000 0.70160  0.06840  0.19152  Biso   1.000  C
  C613     1.0000 0.29840  0.36680  0.69152  Biso   1.000  C
  C614     1.0000 0.63320  0.93160  0.69152  Biso   1.000  C
  C615     1.0000 0.06840  0.70160  0.69152  Biso   1.000  C
  C616     1.0000 0.70160  0.63320  0.19152  Biso   1.000  C
  C617     1.0000 0.36680  0.06840  0.19152  Biso   1.000  C
  C618     1.0000 0.93160  0.29840  0.19152  Biso   1.000  C
  C619     1.0000 0.36680  0.29840  0.30848  Biso   1.000  C
  C620     1.0000 0.93160  0.63320  0.30848  Biso   1.000  C
  C621     1.0000 0.70160  0.06840  0.30848  Biso   1.000  C
  C622     1.0000 0.63320  0.70160  0.80848  Biso   1.000  C
  C623     1.0000 0.06840  0.36680  0.80848  Biso   1.000  C
  C624     1.0000 0.29840  0.93160  0.80848  Biso   1.000  C
  H205     1.0000 0.67350  0.60860  0.34260  Biso   1.000  H
  H206     1.0000 0.39140  0.06490  0.34260  Biso   1.000  H
  H207     1.0000 0.93510  0.32650  0.34260  Biso   1.000  H
  H208     1.0000 0.32650  0.39140  0.84260  Biso   1.000  H
  H209     1.0000 0.60860  0.93510  0.84260  Biso   1.000  H
  H210     1.0000 0.06490  0.67350  0.84260  Biso   1.000  H
  H211     1.0000 0.60860  0.67350  0.65740  Biso   1.000  H
  H212     1.0000 0.06490  0.39140  0.65740  Biso   1.000  H
  H213     1.0000 0.32650  0.93510  0.65740  Biso   1.000  H
  H214     1.0000 0.39140  0.32650  0.15740  Biso   1.000  H
  H215     1.0000 0.93510  0.60860  0.15740  Biso   1.000  H
  H216     1.0000 0.67350  0.06490  0.15740  Biso   1.000  H
  H217     1.0000 0.32650  0.39140  0.65740  Biso   1.000  H
  H218     1.0000 0.60860  0.93510  0.65740  Biso   1.000  H
  H219     1.0000 0.06490  0.67350  0.65740  Biso   1.000  H
  H220     1.0000 0.67350  0.60860  0.15740  Biso   1.000  H
  H221     1.0000 0.39140  0.06490  0.15740  Biso   1.000  H
  H222     1.0000 0.93510  0.32650  0.15740  Biso   1.000  H
  H223     1.0000 0.39140  0.32650  0.34260  Biso   1.000  H
  H224     1.0000 0.93510  0.60860  0.34260  Biso   1.000  H
  H225     1.0000 0.67350  0.06490  0.34260  Biso   1.000  H
  H226     1.0000 0.60860  0.67350  0.84260  Biso   1.000  H
  H227     1.0000 0.06490  0.39140  0.84260  Biso   1.000  H
  H228     1.0000 0.32650  0.93510  0.84260  Biso   1.000  H
  C625     1.0000 0.60630  0.59170  0.38741  Biso   1.000  C
  C626     1.0000 0.40830  0.01460  0.38741  Biso   1.000  C
  C627     1.0000 0.98540  0.39370  0.38741  Biso   1.000  C
  C628     1.0000 0.39370  0.40830  0.88741  Biso   1.000  C
  C629     1.0000 0.59170  0.98540  0.88741  Biso   1.000  C
  C630     1.0000 0.01460  0.60630  0.88741  Biso   1.000  C
  C631     1.0000 0.59170  0.60630  0.61259  Biso   1.000  C
  C632     1.0000 0.01460  0.40830  0.61259  Biso   1.000  C
  C633     1.0000 0.39370  0.98540  0.61259  Biso   1.000  C
  C634     1.0000 0.40830  0.39370  0.11259  Biso   1.000  C
  C635     1.0000 0.98540  0.59170  0.11259  Biso   1.000  C
  C636     1.0000 0.60630  0.01460  0.11259  Biso   1.000  C
  C637     1.0000 0.39370  0.40830  0.61259  Biso   1.000  C
  C638     1.0000 0.59170  0.98540  0.61259  Biso   1.000  C
  C639     1.0000 0.01460  0.60630  0.61259  Biso   1.000  C
  C640     1.0000 0.60630  0.59170  0.11259  Biso   1.000  C
  C641     1.0000 0.40830  0.01460  0.11259  Biso   1.000  C
  C642     1.0000 0.98540  0.39370  0.11259  Biso   1.000  C
  C643     1.0000 0.40830  0.39370  0.38741  Biso   1.000  C
  C644     1.0000 0.98540  0.59170  0.38741  Biso   1.000  C
  C645     1.0000 0.60630  0.01460  0.38741  Biso   1.000  C
  C646     1.0000 0.59170  0.60630  0.88741  Biso   1.000  C
  C647     1.0000 0.01460  0.40830  0.88741  Biso   1.000  C
  C648     1.0000 0.39370  0.98540  0.88741  Biso   1.000  C
  C649     1.0000 0.64610  0.56530  0.37266  Biso   1.000  C
  C650     1.0000 0.43470  0.08080  0.37266  Biso   1.000  C
  C651     1.0000 0.91920  0.35390  0.37266  Biso   1.000  C
  C652     1.0000 0.35390  0.43470  0.87266  Biso   1.000  C
  C653     1.0000 0.56530  0.91920  0.87266  Biso   1.000  C
  C654     1.0000 0.08080  0.64610  0.87266  Biso   1.000  C
  C655     1.0000 0.56530  0.64610  0.62734  Biso   1.000  C
  C656     1.0000 0.08080  0.43470  0.62734  Biso   1.000  C
  C657     1.0000 0.35390  0.91920  0.62734  Biso   1.000  C
  C658     1.0000 0.43470  0.35390  0.12734  Biso   1.000  C
  C659     1.0000 0.91920  0.56530  0.12734  Biso   1.000  C
  C660     1.0000 0.64610  0.08080  0.12734  Biso   1.000  C
  C661     1.0000 0.35390  0.43470  0.62734  Biso   1.000  C
  C662     1.0000 0.56530  0.91920  0.62734  Biso   1.000  C
  C663     1.0000 0.08080  0.64610  0.62734  Biso   1.000  C
  C664     1.0000 0.64610  0.56530  0.12734  Biso   1.000  C
  C665     1.0000 0.43470  0.08080  0.12734  Biso   1.000  C
  C666     1.0000 0.91920  0.35390  0.12734  Biso   1.000  C
  C667     1.0000 0.43470  0.35390  0.37266  Biso   1.000  C
  C668     1.0000 0.91920  0.56530  0.37266  Biso   1.000  C
  C669     1.0000 0.64610  0.08080  0.37266  Biso   1.000  C
  C670     1.0000 0.56530  0.64610  0.87266  Biso   1.000  C
  C671     1.0000 0.08080  0.43470  0.87266  Biso   1.000  C
  C672     1.0000 0.35390  0.91920  0.87266  Biso   1.000  C
  C673     1.0000 0.76580  0.70920  0.29638  Biso   1.000  C
  C674     1.0000 0.29080  0.05660  0.29638  Biso   1.000  C
  C675     1.0000 0.94340  0.23420  0.29638  Biso   1.000  C
  C676     1.0000 0.23420  0.29080  0.79638  Biso   1.000  C
  C677     1.0000 0.70920  0.94340  0.79638  Biso   1.000  C
  C678     1.0000 0.05660  0.76580  0.79638  Biso   1.000  C
  C679     1.0000 0.70920  0.76580  0.70362  Biso   1.000  C
  C680     1.0000 0.05660  0.29080  0.70362  Biso   1.000  C
  C681     1.0000 0.23420  0.94340  0.70362  Biso   1.000  C
  C682     1.0000 0.29080  0.23420  0.20362  Biso   1.000  C
  C683     1.0000 0.94340  0.70920  0.20362  Biso   1.000  C
  C684     1.0000 0.76580  0.05660  0.20362  Biso   1.000  C
  C685     1.0000 0.23420  0.29080  0.70362  Biso   1.000  C
  C686     1.0000 0.70920  0.94340  0.70362  Biso   1.000  C
  C687     1.0000 0.05660  0.76580  0.70362  Biso   1.000  C
  C688     1.0000 0.76580  0.70920  0.20362  Biso   1.000  C
  C689     1.0000 0.29080  0.05660  0.20362  Biso   1.000  C
  C690     1.0000 0.94340  0.23420  0.20362  Biso   1.000  C
  C691     1.0000 0.29080  0.23420  0.29638  Biso   1.000  C
  C692     1.0000 0.94340  0.70920  0.29638  Biso   1.000  C
  C693     1.0000 0.76580  0.05660  0.29638  Biso   1.000  C
  C694     1.0000 0.70920  0.76580  0.79638  Biso   1.000  C
  C695     1.0000 0.05660  0.29080  0.79638  Biso   1.000  C
  C696     1.0000 0.23420  0.94340  0.79638  Biso   1.000  C
  H229     1.0000 0.74940  0.73250  0.31770  Biso   1.000  H
  H230     1.0000 0.26750  0.01690  0.31770  Biso   1.000  H
  H231     1.0000 0.98310  0.25060  0.31770  Biso   1.000  H
  H232     1.0000 0.25060  0.26750  0.81770  Biso   1.000  H
  H233     1.0000 0.73250  0.98310  0.81770  Biso   1.000  H
  H234     1.0000 0.01690  0.74940  0.81770  Biso   1.000  H
  H235     1.0000 0.73250  0.74940  0.68230  Biso   1.000  H
  H236     1.0000 0.01690  0.26750  0.68230  Biso   1.000  H
  H237     1.0000 0.25060  0.98310  0.68230  Biso   1.000  H
  H238     1.0000 0.26750  0.25060  0.18230  Biso   1.000  H
  H239     1.0000 0.98310  0.73250  0.18230  Biso   1.000  H
  H240     1.0000 0.74940  0.01690  0.18230  Biso   1.000  H
  H241     1.0000 0.25060  0.26750  0.68230  Biso   1.000  H
  H242     1.0000 0.73250  0.98310  0.68230  Biso   1.000  H
  H243     1.0000 0.01690  0.74940  0.68230  Biso   1.000  H
  H244     1.0000 0.74940  0.73250  0.18230  Biso   1.000  H
  H245     1.0000 0.26750  0.01690  0.18230  Biso   1.000  H
  H246     1.0000 0.98310  0.25060  0.18230  Biso   1.000  H
  H247     1.0000 0.26750  0.25060  0.31770  Biso   1.000  H
  H248     1.0000 0.98310  0.73250  0.31770  Biso   1.000  H
  H249     1.0000 0.74940  0.01690  0.31770  Biso   1.000  H
  H250     1.0000 0.73250  0.74940  0.81770  Biso   1.000  H
  H251     1.0000 0.01690  0.26750  0.81770  Biso   1.000  H
  H252     1.0000 0.25060  0.98310  0.81770  Biso   1.000  H
  H253     1.0000 0.67970  0.60730  0.31260  Biso   1.000  H
  H254     1.0000 0.39270  0.07240  0.31260  Biso   1.000  H
  H255     1.0000 0.92760  0.32030  0.31260  Biso   1.000  H
  H256     1.0000 0.32030  0.39270  0.81260  Biso   1.000  H
  H257     1.0000 0.60730  0.92760  0.81260  Biso   1.000  H
  H258     1.0000 0.07240  0.67970  0.81260  Biso   1.000  H
  H259     1.0000 0.60730  0.67970  0.68740  Biso   1.000  H
  H260     1.0000 0.07240  0.39270  0.68740  Biso   1.000  H
  H261     1.0000 0.32030  0.92760  0.68740  Biso   1.000  H
  H262     1.0000 0.39270  0.32030  0.18740  Biso   1.000  H
  H263     1.0000 0.92760  0.60730  0.18740  Biso   1.000  H
  H264     1.0000 0.67970  0.07240  0.18740  Biso   1.000  H
  H265     1.0000 0.32030  0.39270  0.68740  Biso   1.000  H
  H266     1.0000 0.60730  0.92760  0.68740  Biso   1.000  H
  H267     1.0000 0.07240  0.67970  0.68740  Biso   1.000  H
  H268     1.0000 0.67970  0.60730  0.18740  Biso   1.000  H
  H269     1.0000 0.39270  0.07240  0.18740  Biso   1.000  H
  H270     1.0000 0.92760  0.32030  0.18740  Biso   1.000  H
  H271     1.0000 0.39270  0.32030  0.31260  Biso   1.000  H
  H272     1.0000 0.92760  0.60730  0.31260  Biso   1.000  H
  H273     1.0000 0.67970  0.07240  0.31260  Biso   1.000  H
  H274     1.0000 0.60730  0.67970  0.81260  Biso   1.000  H
  H275     1.0000 0.07240  0.39270  0.81260  Biso   1.000  H
  H276     1.0000 0.32030  0.92760  0.81260  Biso   1.000  H
  C697     1.0000 0.72440  0.63480  0.29338  Biso   1.000  C
  C698     1.0000 0.36520  0.08960  0.29338  Biso   1.000  C
  C699     1.0000 0.91040  0.27560  0.29338  Biso   1.000  C
  C700     1.0000 0.27560  0.36520  0.79338  Biso   1.000  C
  C701     1.0000 0.63480  0.91040  0.79338  Biso   1.000  C
  C702     1.0000 0.08960  0.72440  0.79338  Biso   1.000  C
  C703     1.0000 0.63480  0.72440  0.70662  Biso   1.000  C
  C704     1.0000 0.08960  0.36520  0.70662  Biso   1.000  C
  C705     1.0000 0.27560  0.91040  0.70662  Biso   1.000  C
  C706     1.0000 0.36520  0.27560  0.20662  Biso   1.000  C
  C707     1.0000 0.91040  0.63480  0.20662  Biso   1.000  C
  C708     1.0000 0.72440  0.08960  0.20662  Biso   1.000  C
  C709     1.0000 0.27560  0.36520  0.70662  Biso   1.000  C
  C710     1.0000 0.63480  0.91040  0.70662  Biso   1.000  C
  C711     1.0000 0.08960  0.72440  0.70662  Biso   1.000  C
  C712     1.0000 0.72440  0.63480  0.20662  Biso   1.000  C
  C713     1.0000 0.36520  0.08960  0.20662  Biso   1.000  C
  C714     1.0000 0.91040  0.27560  0.20662  Biso   1.000  C
  C715     1.0000 0.36520  0.27560  0.29338  Biso   1.000  C
  C716     1.0000 0.91040  0.63480  0.29338  Biso   1.000  C
  C717     1.0000 0.72440  0.08960  0.29338  Biso   1.000  C
  C718     1.0000 0.63480  0.72440  0.79338  Biso   1.000  C
  C719     1.0000 0.08960  0.36520  0.79338  Biso   1.000  C
  C720     1.0000 0.27560  0.91040  0.79338  Biso   1.000  C
  C721     1.0000 0.58990  0.55790  0.39908  Biso   1.000  C
  C722     1.0000 0.44210  0.03200  0.39908  Biso   1.000  C
  C723     1.0000 0.96800  0.41010  0.39908  Biso   1.000  C
  C724     1.0000 0.41010  0.44210  0.89908  Biso   1.000  C
  C725     1.0000 0.55790  0.96800  0.89908  Biso   1.000  C
  C726     1.0000 0.03200  0.58990  0.89908  Biso   1.000  C
  C727     1.0000 0.55790  0.58990  0.60092  Biso   1.000  C
  C728     1.0000 0.03200  0.44210  0.60092  Biso   1.000  C
  C729     1.0000 0.41010  0.96800  0.60092  Biso   1.000  C
  C730     1.0000 0.44210  0.41010  0.10092  Biso   1.000  C
  C731     1.0000 0.96800  0.55790  0.10092  Biso   1.000  C
  C732     1.0000 0.58990  0.03200  0.10092  Biso   1.000  C
  C733     1.0000 0.41010  0.44210  0.60092  Biso   1.000  C
  C734     1.0000 0.55790  0.96800  0.60092  Biso   1.000  C
  C735     1.0000 0.03200  0.58990  0.60092  Biso   1.000  C
  C736     1.0000 0.58990  0.55790  0.10092  Biso   1.000  C
  C737     1.0000 0.44210  0.03200  0.10092  Biso   1.000  C
  C738     1.0000 0.96800  0.41010  0.10092  Biso   1.000  C
  C739     1.0000 0.44210  0.41010  0.39908  Biso   1.000  C
  C740     1.0000 0.96800  0.55790  0.39908  Biso   1.000  C
  C741     1.0000 0.58990  0.03200  0.39908  Biso   1.000  C
  C742     1.0000 0.55790  0.58990  0.89908  Biso   1.000  C
  C743     1.0000 0.03200  0.44210  0.89908  Biso   1.000  C
  C744     1.0000 0.41010  0.96800  0.89908  Biso   1.000  C
  H277     1.0000 0.59830  0.61220  0.38850  Biso   1.000  H
  H278     1.0000 0.38780  0.98610  0.38850  Biso   1.000  H
  H279     1.0000 0.01390  0.40170  0.38850  Biso   1.000  H
  H280     1.0000 0.40170  0.38780  0.88850  Biso   1.000  H
  H281     1.0000 0.61220  0.01390  0.88850  Biso   1.000  H
  H282     1.0000 0.98610  0.59830  0.88850  Biso   1.000  H
  H283     1.0000 0.61220  0.59830  0.61150  Biso   1.000  H
  H284     1.0000 0.98610  0.38780  0.61150  Biso   1.000  H
  H285     1.0000 0.40170  0.01390  0.61150  Biso   1.000  H
  H286     1.0000 0.38780  0.40170  0.11150  Biso   1.000  H
  H287     1.0000 0.01390  0.61220  0.11150  Biso   1.000  H
  H288     1.0000 0.59830  0.98610  0.11150  Biso   1.000  H
  H289     1.0000 0.40170  0.38780  0.61150  Biso   1.000  H
  H290     1.0000 0.61220  0.01390  0.61150  Biso   1.000  H
  H291     1.0000 0.98610  0.59830  0.61150  Biso   1.000  H
  H292     1.0000 0.59830  0.61220  0.11150  Biso   1.000  H
  H293     1.0000 0.38780  0.98610  0.11150  Biso   1.000  H
  H294     1.0000 0.01390  0.40170  0.11150  Biso   1.000  H
  H295     1.0000 0.38780  0.40170  0.38850  Biso   1.000  H
  H296     1.0000 0.01390  0.61220  0.38850  Biso   1.000  H
  H297     1.0000 0.59830  0.98610  0.38850  Biso   1.000  H
  H298     1.0000 0.61220  0.59830  0.88850  Biso   1.000  H
  H299     1.0000 0.98610  0.38780  0.88850  Biso   1.000  H
  H300     1.0000 0.40170  0.01390  0.88850  Biso   1.000  H
  H301     1.0000 0.66530  0.56780  0.36360  Biso   1.000  H
  H302     1.0000 0.43220  0.09750  0.36360  Biso   1.000  H
  H303     1.0000 0.90250  0.33470  0.36360  Biso   1.000  H
  H304     1.0000 0.33470  0.43220  0.86360  Biso   1.000  H
  H305     1.0000 0.56780  0.90250  0.86360  Biso   1.000  H
  H306     1.0000 0.09750  0.66530  0.86360  Biso   1.000  H
  H307     1.0000 0.56780  0.66530  0.63640  Biso   1.000  H
  H308     1.0000 0.09750  0.43220  0.63640  Biso   1.000  H
  H309     1.0000 0.33470  0.90250  0.63640  Biso   1.000  H
  H310     1.0000 0.43220  0.33470  0.13640  Biso   1.000  H
  H311     1.0000 0.90250  0.56780  0.13640  Biso   1.000  H
  H312     1.0000 0.66530  0.09750  0.13640  Biso   1.000  H
  H313     1.0000 0.33470  0.43220  0.63640  Biso   1.000  H
  H314     1.0000 0.56780  0.90250  0.63640  Biso   1.000  H
  H315     1.0000 0.09750  0.66530  0.63640  Biso   1.000  H
  H316     1.0000 0.66530  0.56780  0.13640  Biso   1.000  H
  H317     1.0000 0.43220  0.09750  0.13640  Biso   1.000  H
  H318     1.0000 0.90250  0.33470  0.13640  Biso   1.000  H
  H319     1.0000 0.43220  0.33470  0.36360  Biso   1.000  H
  H320     1.0000 0.90250  0.56780  0.36360  Biso   1.000  H
  H321     1.0000 0.66530  0.09750  0.36360  Biso   1.000  H
  H322     1.0000 0.56780  0.66530  0.86360  Biso   1.000  H
  H323     1.0000 0.09750  0.43220  0.86360  Biso   1.000  H
  H324     1.0000 0.33470  0.90250  0.86360  Biso   1.000  H
  C745     1.0000 0.62970  0.53150  0.38433  Biso   1.000  C
  C746     1.0000 0.46850  0.09820  0.38433  Biso   1.000  C
  C747     1.0000 0.90180  0.37030  0.38433  Biso   1.000  C
  C748     1.0000 0.37030  0.46850  0.88433  Biso   1.000  C
  C749     1.0000 0.53150  0.90180  0.88433  Biso   1.000  C
  C750     1.0000 0.09820  0.62970  0.88433  Biso   1.000  C
  C751     1.0000 0.53150  0.62970  0.61567  Biso   1.000  C
  C752     1.0000 0.09820  0.46850  0.61567  Biso   1.000  C
  C753     1.0000 0.37030  0.90180  0.61567  Biso   1.000  C
  C754     1.0000 0.46850  0.37030  0.11567  Biso   1.000  C
  C755     1.0000 0.90180  0.53150  0.11567  Biso   1.000  C
  C756     1.0000 0.62970  0.09820  0.11567  Biso   1.000  C
  C757     1.0000 0.37030  0.46850  0.61567  Biso   1.000  C
  C758     1.0000 0.53150  0.90180  0.61567  Biso   1.000  C
  C759     1.0000 0.09820  0.62970  0.61567  Biso   1.000  C
  C760     1.0000 0.62970  0.53150  0.11567  Biso   1.000  C
  C761     1.0000 0.46850  0.09820  0.11567  Biso   1.000  C
  C762     1.0000 0.90180  0.37030  0.11567  Biso   1.000  C
  C763     1.0000 0.46850  0.37030  0.38433  Biso   1.000  C
  C764     1.0000 0.90180  0.53150  0.38433  Biso   1.000  C
  C765     1.0000 0.62970  0.09820  0.38433  Biso   1.000  C
  C766     1.0000 0.53150  0.62970  0.88433  Biso   1.000  C
  C767     1.0000 0.09820  0.46850  0.88433  Biso   1.000  C
  C768     1.0000 0.37030  0.90180  0.88433  Biso   1.000  C
  C769     1.0000 0.75650  0.67280  0.28734  Biso   1.000  C
  C770     1.0000 0.32720  0.08370  0.28734  Biso   1.000  C
  C771     1.0000 0.91630  0.24350  0.28734  Biso   1.000  C
  C772     1.0000 0.24350  0.32720  0.78734  Biso   1.000  C
  C773     1.0000 0.67280  0.91630  0.78734  Biso   1.000  C
  C774     1.0000 0.08370  0.75650  0.78734  Biso   1.000  C
  C775     1.0000 0.67280  0.75650  0.71266  Biso   1.000  C
  C776     1.0000 0.08370  0.32720  0.71266  Biso   1.000  C
  C777     1.0000 0.24350  0.91630  0.71266  Biso   1.000  C
  C778     1.0000 0.32720  0.24350  0.21266  Biso   1.000  C
  C779     1.0000 0.91630  0.67280  0.21266  Biso   1.000  C
  C780     1.0000 0.75650  0.08370  0.21266  Biso   1.000  C
  C781     1.0000 0.24350  0.32720  0.71266  Biso   1.000  C
  C782     1.0000 0.67280  0.91630  0.71266  Biso   1.000  C
  C783     1.0000 0.08370  0.75650  0.71266  Biso   1.000  C
  C784     1.0000 0.75650  0.67280  0.21266  Biso   1.000  C
  C785     1.0000 0.32720  0.08370  0.21266  Biso   1.000  C
  C786     1.0000 0.91630  0.24350  0.21266  Biso   1.000  C
  C787     1.0000 0.32720  0.24350  0.28734  Biso   1.000  C
  C788     1.0000 0.91630  0.67280  0.28734  Biso   1.000  C
  C789     1.0000 0.75650  0.08370  0.28734  Biso   1.000  C
  C790     1.0000 0.67280  0.75650  0.78734  Biso   1.000  C
  C791     1.0000 0.08370  0.32720  0.78734  Biso   1.000  C
  C792     1.0000 0.24350  0.91630  0.78734  Biso   1.000  C
  H325     1.0000 0.78770  0.73520  0.29220  Biso   1.000  H
  H326     1.0000 0.26480  0.05250  0.29220  Biso   1.000  H
  H327     1.0000 0.94750  0.21230  0.29220  Biso   1.000  H
  H328     1.0000 0.21230  0.26480  0.79220  Biso   1.000  H
  H329     1.0000 0.73520  0.94750  0.79220  Biso   1.000  H
  H330     1.0000 0.05250  0.78770  0.79220  Biso   1.000  H
  H331     1.0000 0.73520  0.78770  0.70780  Biso   1.000  H
  H332     1.0000 0.05250  0.26480  0.70780  Biso   1.000  H
  H333     1.0000 0.21230  0.94750  0.70780  Biso   1.000  H
  H334     1.0000 0.26480  0.21230  0.20780  Biso   1.000  H
  H335     1.0000 0.94750  0.73520  0.20780  Biso   1.000  H
  H336     1.0000 0.78770  0.05250  0.20780  Biso   1.000  H
  H337     1.0000 0.21230  0.26480  0.70780  Biso   1.000  H
  H338     1.0000 0.73520  0.94750  0.70780  Biso   1.000  H
  H339     1.0000 0.05250  0.78770  0.70780  Biso   1.000  H
  H340     1.0000 0.78770  0.73520  0.20780  Biso   1.000  H
  H341     1.0000 0.26480  0.05250  0.20780  Biso   1.000  H
  H342     1.0000 0.94750  0.21230  0.20780  Biso   1.000  H
  H343     1.0000 0.26480  0.21230  0.29220  Biso   1.000  H
  H344     1.0000 0.94750  0.73520  0.29220  Biso   1.000  H
  H345     1.0000 0.78770  0.05250  0.29220  Biso   1.000  H
  H346     1.0000 0.73520  0.78770  0.79220  Biso   1.000  H
  H347     1.0000 0.05250  0.26480  0.79220  Biso   1.000  H
  H348     1.0000 0.21230  0.94750  0.79220  Biso   1.000  H
  H349     1.0000 0.71800  0.61000  0.28720  Biso   1.000  H
  H350     1.0000 0.39000  0.10800  0.28720  Biso   1.000  H
  H351     1.0000 0.89200  0.28200  0.28720  Biso   1.000  H
  H352     1.0000 0.28200  0.39000  0.78720  Biso   1.000  H
  H353     1.0000 0.61000  0.89200  0.78720  Biso   1.000  H
  H354     1.0000 0.10800  0.71800  0.78720  Biso   1.000  H
  H355     1.0000 0.61000  0.71800  0.71280  Biso   1.000  H
  H356     1.0000 0.10800  0.39000  0.71280  Biso   1.000  H
  H357     1.0000 0.28200  0.89200  0.71280  Biso   1.000  H
  H358     1.0000 0.39000  0.28200  0.21280  Biso   1.000  H
  H359     1.0000 0.89200  0.61000  0.21280  Biso   1.000  H
  H360     1.0000 0.71800  0.10800  0.21280  Biso   1.000  H
  H361     1.0000 0.28200  0.39000  0.71280  Biso   1.000  H
  H362     1.0000 0.61000  0.89200  0.71280  Biso   1.000  H
  H363     1.0000 0.10800  0.71800  0.71280  Biso   1.000  H
  H364     1.0000 0.71800  0.61000  0.21280  Biso   1.000  H
  H365     1.0000 0.39000  0.10800  0.21280  Biso   1.000  H
  H366     1.0000 0.89200  0.28200  0.21280  Biso   1.000  H
  H367     1.0000 0.39000  0.28200  0.28720  Biso   1.000  H
  H368     1.0000 0.89200  0.61000  0.28720  Biso   1.000  H
  H369     1.0000 0.71800  0.10800  0.28720  Biso   1.000  H
  H370     1.0000 0.61000  0.71800  0.78720  Biso   1.000  H
  H371     1.0000 0.10800  0.39000  0.78720  Biso   1.000  H
  H372     1.0000 0.28200  0.89200  0.78720  Biso   1.000  H
  C793     1.0000 0.60160  0.52790  0.39754  Biso   1.000  C
  C794     1.0000 0.47210  0.07370  0.39754  Biso   1.000  C
  C795     1.0000 0.92630  0.39840  0.39754  Biso   1.000  C
  C796     1.0000 0.39840  0.47210  0.89754  Biso   1.000  C
  C797     1.0000 0.52790  0.92630  0.89754  Biso   1.000  C
  C798     1.0000 0.07370  0.60160  0.89754  Biso   1.000  C
  C799     1.0000 0.52790  0.60160  0.60246  Biso   1.000  C
  C800     1.0000 0.07370  0.47210  0.60246  Biso   1.000  C
  C801     1.0000 0.39840  0.92630  0.60246  Biso   1.000  C
  C802     1.0000 0.47210  0.39840  0.10246  Biso   1.000  C
  C803     1.0000 0.92630  0.52790  0.10246  Biso   1.000  C
  C804     1.0000 0.60160  0.07370  0.10246  Biso   1.000  C
  C805     1.0000 0.39840  0.47210  0.60246  Biso   1.000  C
  C806     1.0000 0.52790  0.92630  0.60246  Biso   1.000  C
  C807     1.0000 0.07370  0.60160  0.60246  Biso   1.000  C
  C808     1.0000 0.60160  0.52790  0.10246  Biso   1.000  C
  C809     1.0000 0.47210  0.07370  0.10246  Biso   1.000  C
  C810     1.0000 0.92630  0.39840  0.10246  Biso   1.000  C
  C811     1.0000 0.47210  0.39840  0.39754  Biso   1.000  C
  C812     1.0000 0.92630  0.52790  0.39754  Biso   1.000  C
  C813     1.0000 0.60160  0.07370  0.39754  Biso   1.000  C
  C814     1.0000 0.52790  0.60160  0.89754  Biso   1.000  C
  C815     1.0000 0.07370  0.47210  0.89754  Biso   1.000  C
  C816     1.0000 0.39840  0.92630  0.89754  Biso   1.000  C
  H373     1.0000 0.57070  0.55540  0.40810  Biso   1.000  H
  H374     1.0000 0.44460  0.01530  0.40810  Biso   1.000  H
  H375     1.0000 0.98470  0.42930  0.40810  Biso   1.000  H
  H376     1.0000 0.42930  0.44460  0.90810  Biso   1.000  H
  H377     1.0000 0.55540  0.98470  0.90810  Biso   1.000  H
  H378     1.0000 0.01530  0.57070  0.90810  Biso   1.000  H
  H379     1.0000 0.55540  0.57070  0.59190  Biso   1.000  H
  H380     1.0000 0.01530  0.44460  0.59190  Biso   1.000  H
  H381     1.0000 0.42930  0.98470  0.59190  Biso   1.000  H
  H382     1.0000 0.44460  0.42930  0.09190  Biso   1.000  H
  H383     1.0000 0.98470  0.55540  0.09190  Biso   1.000  H
  H384     1.0000 0.57070  0.01530  0.09190  Biso   1.000  H
  H385     1.0000 0.42930  0.44460  0.59190  Biso   1.000  H
  H386     1.0000 0.55540  0.98470  0.59190  Biso   1.000  H
  H387     1.0000 0.01530  0.57070  0.59190  Biso   1.000  H
  H388     1.0000 0.57070  0.55540  0.09190  Biso   1.000  H
  H389     1.0000 0.44460  0.01530  0.09190  Biso   1.000  H
  H390     1.0000 0.98470  0.42930  0.09190  Biso   1.000  H
  H391     1.0000 0.44460  0.42930  0.40810  Biso   1.000  H
  H392     1.0000 0.98470  0.55540  0.40810  Biso   1.000  H
  H393     1.0000 0.57070  0.01530  0.40810  Biso   1.000  H
  H394     1.0000 0.55540  0.57070  0.90810  Biso   1.000  H
  H395     1.0000 0.01530  0.44460  0.90810  Biso   1.000  H
  H396     1.0000 0.42930  0.98470  0.90810  Biso   1.000  H
  H397     1.0000 0.63770  0.51100  0.38330  Biso   1.000  H
  H398     1.0000 0.48900  0.12670  0.38330  Biso   1.000  H
  H399     1.0000 0.87330  0.36230  0.38330  Biso   1.000  H
  H400     1.0000 0.36230  0.48900  0.88330  Biso   1.000  H
  H401     1.0000 0.51100  0.87330  0.88330  Biso   1.000  H
  H402     1.0000 0.12670  0.63770  0.88330  Biso   1.000  H
  H403     1.0000 0.51100  0.63770  0.61670  Biso   1.000  H
  H404     1.0000 0.12670  0.48900  0.61670  Biso   1.000  H
  H405     1.0000 0.36230  0.87330  0.61670  Biso   1.000  H
  H406     1.0000 0.48900  0.36230  0.11670  Biso   1.000  H
  H407     1.0000 0.87330  0.51100  0.11670  Biso   1.000  H
  H408     1.0000 0.63770  0.12670  0.11670  Biso   1.000  H
  H409     1.0000 0.36230  0.48900  0.61670  Biso   1.000  H
  H410     1.0000 0.51100  0.87330  0.61670  Biso   1.000  H
  H411     1.0000 0.12670  0.63770  0.61670  Biso   1.000  H
  H412     1.0000 0.63770  0.51100  0.11670  Biso   1.000  H
  H413     1.0000 0.48900  0.12670  0.11670  Biso   1.000  H
  H414     1.0000 0.87330  0.36230  0.11670  Biso   1.000  H
  H415     1.0000 0.48900  0.36230  0.38330  Biso   1.000  H
  H416     1.0000 0.87330  0.51100  0.38330  Biso   1.000  H
  H417     1.0000 0.63770  0.12670  0.38330  Biso   1.000  H
  H418     1.0000 0.51100  0.63770  0.88330  Biso   1.000  H
  H419     1.0000 0.12670  0.48900  0.88330  Biso   1.000  H
  H420     1.0000 0.36230  0.87330  0.88330  Biso   1.000  H
  C817     1.0000 0.78830  0.67800  0.27300  Biso   1.000  C
  C818     1.0000 0.32200  0.11030  0.27300  Biso   1.000  C
  C819     1.0000 0.88970  0.21170  0.27300  Biso   1.000  C
  C820     1.0000 0.21170  0.32200  0.77300  Biso   1.000  C
  C821     1.0000 0.67800  0.88970  0.77300  Biso   1.000  C
  C822     1.0000 0.11030  0.78830  0.77300  Biso   1.000  C
  C823     1.0000 0.67800  0.78830  0.72700  Biso   1.000  C
  C824     1.0000 0.11030  0.32200  0.72700  Biso   1.000  C
  C825     1.0000 0.21170  0.88970  0.72700  Biso   1.000  C
  C826     1.0000 0.32200  0.21170  0.22700  Biso   1.000  C
  C827     1.0000 0.88970  0.67800  0.22700  Biso   1.000  C
  C828     1.0000 0.78830  0.11030  0.22700  Biso   1.000  C
  C829     1.0000 0.21170  0.32200  0.72700  Biso   1.000  C
  C830     1.0000 0.67800  0.88970  0.72700  Biso   1.000  C
  C831     1.0000 0.11030  0.78830  0.72700  Biso   1.000  C
  C832     1.0000 0.78830  0.67800  0.22700  Biso   1.000  C
  C833     1.0000 0.32200  0.11030  0.22700  Biso   1.000  C
  C834     1.0000 0.88970  0.21170  0.22700  Biso   1.000  C
  C835     1.0000 0.32200  0.21170  0.27300  Biso   1.000  C
  C836     1.0000 0.88970  0.67800  0.27300  Biso   1.000  C
  C837     1.0000 0.78830  0.11030  0.27300  Biso   1.000  C
  C838     1.0000 0.67800  0.78830  0.77300  Biso   1.000  C
  C839     1.0000 0.11030  0.32200  0.77300  Biso   1.000  C
  C840     1.0000 0.21170  0.88970  0.77300  Biso   1.000  C
  C841     1.0000 0.59200  0.49530  0.41140  Biso   1.000  C
  C842     1.0000 0.50470  0.09670  0.41140  Biso   1.000  C
  C843     1.0000 0.90330  0.40800  0.41140  Biso   1.000  C
  C844     1.0000 0.40800  0.50470  0.91140  Biso   1.000  C
  C845     1.0000 0.49530  0.90330  0.91140  Biso   1.000  C
  C846     1.0000 0.09670  0.59200  0.91140  Biso   1.000  C
  C847     1.0000 0.49530  0.59200  0.58860  Biso   1.000  C
  C848     1.0000 0.09670  0.50470  0.58860  Biso   1.000  C
  C849     1.0000 0.40800  0.90330  0.58860  Biso   1.000  C
  C850     1.0000 0.50470  0.40800  0.08860  Biso   1.000  C
  C851     1.0000 0.90330  0.49530  0.08860  Biso   1.000  C
  C852     1.0000 0.59200  0.09670  0.08860  Biso   1.000  C
  C853     1.0000 0.40800  0.50470  0.58860  Biso   1.000  C
  C854     1.0000 0.49530  0.90330  0.58860  Biso   1.000  C
  C855     1.0000 0.09670  0.59200  0.58860  Biso   1.000  C
  C856     1.0000 0.59200  0.49530  0.08860  Biso   1.000  C
  C857     1.0000 0.50470  0.09670  0.08860  Biso   1.000  C
  C858     1.0000 0.90330  0.40800  0.08860  Biso   1.000  C
  C859     1.0000 0.50470  0.40800  0.41140  Biso   1.000  C
  C860     1.0000 0.90330  0.49530  0.41140  Biso   1.000  C
  C861     1.0000 0.59200  0.09670  0.41140  Biso   1.000  C
  C862     1.0000 0.49530  0.59200  0.91140  Biso   1.000  C
  C863     1.0000 0.09670  0.50470  0.91140  Biso   1.000  C
  C864     1.0000 0.40800  0.90330  0.91140  Biso   1.000  C
  O121     1.0000 0.81938  0.71268  0.26848  Biso   1.000  O
  O122     1.0000 0.28732  0.10670  0.26848  Biso   1.000  O
  O123     1.0000 0.89330  0.18062  0.26848  Biso   1.000  O
  O124     1.0000 0.18062  0.28732  0.76848  Biso   1.000  O
  O125     1.0000 0.71268  0.89330  0.76848  Biso   1.000  O
  O126     1.0000 0.10670  0.81938  0.76848  Biso   1.000  O
  O127     1.0000 0.71268  0.81938  0.73152  Biso   1.000  O
  O128     1.0000 0.10670  0.28732  0.73152  Biso   1.000  O
  O129     1.0000 0.18062  0.89330  0.73152  Biso   1.000  O
  O130     1.0000 0.28732  0.18062  0.23152  Biso   1.000  O
  O131     1.0000 0.89330  0.71268  0.23152  Biso   1.000  O
  O132     1.0000 0.81938  0.10670  0.23152  Biso   1.000  O
  O133     1.0000 0.18062  0.28732  0.73152  Biso   1.000  O
  O134     1.0000 0.71268  0.89330  0.73152  Biso   1.000  O
  O135     1.0000 0.10670  0.81938  0.73152  Biso   1.000  O
  O136     1.0000 0.81938  0.71268  0.23152  Biso   1.000  O
  O137     1.0000 0.28732  0.10670  0.23152  Biso   1.000  O
  O138     1.0000 0.89330  0.18062  0.23152  Biso   1.000  O
  O139     1.0000 0.28732  0.18062  0.26848  Biso   1.000  O
  O140     1.0000 0.89330  0.71268  0.26848  Biso   1.000  O
  O141     1.0000 0.81938  0.10670  0.26848  Biso   1.000  O
  O142     1.0000 0.71268  0.81938  0.76848  Biso   1.000  O
  O143     1.0000 0.10670  0.28732  0.76848  Biso   1.000  O
  O144     1.0000 0.18062  0.89330  0.76848  Biso   1.000  O
  O145     1.0000 0.78376  0.64242  0.26872  Biso   1.000  O
  O146     1.0000 0.35758  0.14134  0.26872  Biso   1.000  O
  O147     1.0000 0.85866  0.21624  0.26872  Biso   1.000  O
  O148     1.0000 0.21624  0.35758  0.76872  Biso   1.000  O
  O149     1.0000 0.64242  0.85866  0.76872  Biso   1.000  O
  O150     1.0000 0.14134  0.78376  0.76872  Biso   1.000  O
  O151     1.0000 0.64242  0.78376  0.73128  Biso   1.000  O
  O152     1.0000 0.14134  0.35758  0.73128  Biso   1.000  O
  O153     1.0000 0.21624  0.85866  0.73128  Biso   1.000  O
  O154     1.0000 0.35758  0.21624  0.23128  Biso   1.000  O
  O155     1.0000 0.85866  0.64242  0.23128  Biso   1.000  O
  O156     1.0000 0.78376  0.14134  0.23128  Biso   1.000  O
  O157     1.0000 0.21624  0.35758  0.73128  Biso   1.000  O
  O158     1.0000 0.64242  0.85866  0.73128  Biso   1.000  O
  O159     1.0000 0.14134  0.78376  0.73128  Biso   1.000  O
  O160     1.0000 0.78376  0.64242  0.23128  Biso   1.000  O
  O161     1.0000 0.35758  0.14134  0.23128  Biso   1.000  O
  O162     1.0000 0.85866  0.21624  0.23128  Biso   1.000  O
  O163     1.0000 0.35758  0.21624  0.26872  Biso   1.000  O
  O164     1.0000 0.85866  0.64242  0.26872  Biso   1.000  O
  O165     1.0000 0.78376  0.14134  0.26872  Biso   1.000  O
  O166     1.0000 0.64242  0.78376  0.76872  Biso   1.000  O
  O167     1.0000 0.14134  0.35758  0.76872  Biso   1.000  O
  O168     1.0000 0.21624  0.85866  0.76872  Biso   1.000  O
  Cu25     1.0000 0.85880  0.71760  0.25000  Biso   1.000  Cu
  Cu26     1.0000 0.28240  0.14120  0.25000  Biso   1.000  Cu
  Cu27     1.0000 0.85880  0.14120  0.25000  Biso   1.000  Cu
  Cu28     1.0000 0.14120  0.28240  0.75000  Biso   1.000  Cu
  Cu29     1.0000 0.71760  0.85880  0.75000  Biso   1.000  Cu
  Cu30     1.0000 0.14120  0.85880  0.75000  Biso   1.000  Cu
  Cu31     1.0000 0.81790  0.63580  0.25000  Biso   1.000  Cu
  Cu32     1.0000 0.36420  0.18210  0.25000  Biso   1.000  Cu
  Cu33     1.0000 0.81790  0.18210  0.25000  Biso   1.000  Cu
  Cu34     1.0000 0.18210  0.36420  0.75000  Biso   1.000  Cu
  Cu35     1.0000 0.63580  0.81790  0.75000  Biso   1.000  Cu
  Cu36     1.0000 0.18210  0.81790  0.75000  Biso   1.000  Cu
  O169     1.0000 0.89471  0.78940  0.25000  Biso   1.000  O
  O170     1.0000 0.21060  0.10531  0.25000  Biso   1.000  O
  O171     1.0000 0.89469  0.10529  0.25000  Biso   1.000  O
  O172     1.0000 0.10529  0.21060  0.75000  Biso   1.000  O
  O173     1.0000 0.78940  0.89469  0.75000  Biso   1.000  O
  O174     1.0000 0.10531  0.89471  0.75000  Biso   1.000  O
  O175     1.0000 0.78232  0.56460  0.25000  Biso   1.000  O
  O176     1.0000 0.43540  0.21772  0.25000  Biso   1.000  O
  O177     1.0000 0.78228  0.21768  0.25000  Biso   1.000  O
  O178     1.0000 0.21768  0.43540  0.75000  Biso   1.000  O
  O179     1.0000 0.56460  0.78228  0.75000  Biso   1.000  O
  O180     1.0000 0.21772  0.78232  0.75000  Biso   1.000  O
  C865     1.0000 0.71560  0.68260  0.34048  Biso   1.000  C
  C866     1.0000 0.31740  0.03300  0.34048  Biso   1.000  C
  C867     1.0000 0.96700  0.28440  0.34048  Biso   1.000  C
  C868     1.0000 0.28440  0.31740  0.84048  Biso   1.000  C
  C869     1.0000 0.68260  0.96700  0.84048  Biso   1.000  C
  C870     1.0000 0.03300  0.71560  0.84048  Biso   1.000  C
  C871     1.0000 0.68260  0.71560  0.65952  Biso   1.000  C
  C872     1.0000 0.03300  0.31740  0.65952  Biso   1.000  C
  C873     1.0000 0.28440  0.96700  0.65952  Biso   1.000  C
  C874     1.0000 0.31740  0.28440  0.15952  Biso   1.000  C
  C875     1.0000 0.96700  0.68260  0.15952  Biso   1.000  C
  C876     1.0000 0.71560  0.03300  0.15952  Biso   1.000  C
  C877     1.0000 0.28440  0.31740  0.65952  Biso   1.000  C
  C878     1.0000 0.68260  0.96700  0.65952  Biso   1.000  C
  C879     1.0000 0.03300  0.71560  0.65952  Biso   1.000  C
  C880     1.0000 0.71560  0.68260  0.15952  Biso   1.000  C
  C881     1.0000 0.31740  0.03300  0.15952  Biso   1.000  C
  C882     1.0000 0.96700  0.28440  0.15952  Biso   1.000  C
  C883     1.0000 0.31740  0.28440  0.34048  Biso   1.000  C
  C884     1.0000 0.96700  0.68260  0.34048  Biso   1.000  C
  C885     1.0000 0.71560  0.03300  0.34048  Biso   1.000  C
  C886     1.0000 0.68260  0.71560  0.84048  Biso   1.000  C
  C887     1.0000 0.03300  0.31740  0.84048  Biso   1.000  C
  C888     1.0000 0.28440  0.96700  0.84048  Biso   1.000  C
  C889     1.0000 0.71640  0.71860  0.34627  Biso   1.000  C
  C890     1.0000 0.28140  0.99780  0.34627  Biso   1.000  C
  C891     1.0000 0.00220  0.28360  0.34627  Biso   1.000  C
  C892     1.0000 0.28360  0.28140  0.84627  Biso   1.000  C
  C893     1.0000 0.71860  0.00220  0.84627  Biso   1.000  C
  C894     1.0000 0.99780  0.71640  0.84627  Biso   1.000  C
  C895     1.0000 0.71860  0.71640  0.65373  Biso   1.000  C
  C896     1.0000 0.99780  0.28140  0.65373  Biso   1.000  C
  C897     1.0000 0.28360  0.00220  0.65373  Biso   1.000  C
  C898     1.0000 0.28140  0.28360  0.15373  Biso   1.000  C
  C899     1.0000 0.00220  0.71860  0.15373  Biso   1.000  C
  C900     1.0000 0.71640  0.99780  0.15373  Biso   1.000  C
  C901     1.0000 0.28360  0.28140  0.65373  Biso   1.000  C
  C902     1.0000 0.71860  0.00220  0.65373  Biso   1.000  C
  C903     1.0000 0.99780  0.71640  0.65373  Biso   1.000  C
  C904     1.0000 0.71640  0.71860  0.15373  Biso   1.000  C
  C905     1.0000 0.28140  0.99780  0.15373  Biso   1.000  C
  C906     1.0000 0.00220  0.28360  0.15373  Biso   1.000  C
  C907     1.0000 0.28140  0.28360  0.34627  Biso   1.000  C
  C908     1.0000 0.00220  0.71860  0.34627  Biso   1.000  C
  C909     1.0000 0.71640  0.99780  0.34627  Biso   1.000  C
  C910     1.0000 0.71860  0.71640  0.84627  Biso   1.000  C
  C911     1.0000 0.99780  0.28140  0.84627  Biso   1.000  C
  C912     1.0000 0.28360  0.00220  0.84627  Biso   1.000  C
  H421     1.0000 0.72920  0.74290  0.33910  Biso   1.000  H
  H422     1.0000 0.25710  0.98630  0.33910  Biso   1.000  H
  H423     1.0000 0.01370  0.27080  0.33910  Biso   1.000  H
  H424     1.0000 0.27080  0.25710  0.83910  Biso   1.000  H
  H425     1.0000 0.74290  0.01370  0.83910  Biso   1.000  H
  H426     1.0000 0.98630  0.72920  0.83910  Biso   1.000  H
  H427     1.0000 0.74290  0.72920  0.66090  Biso   1.000  H
  H428     1.0000 0.98630  0.25710  0.66090  Biso   1.000  H
  H429     1.0000 0.27080  0.01370  0.66090  Biso   1.000  H
  H430     1.0000 0.25710  0.27080  0.16090  Biso   1.000  H
  H431     1.0000 0.01370  0.74290  0.16090  Biso   1.000  H
  H432     1.0000 0.72920  0.98630  0.16090  Biso   1.000  H
  H433     1.0000 0.27080  0.25710  0.66090  Biso   1.000  H
  H434     1.0000 0.74290  0.01370  0.66090  Biso   1.000  H
  H435     1.0000 0.98630  0.72920  0.66090  Biso   1.000  H
  H436     1.0000 0.72920  0.74290  0.16090  Biso   1.000  H
  H437     1.0000 0.25710  0.98630  0.16090  Biso   1.000  H
  H438     1.0000 0.01370  0.27080  0.16090  Biso   1.000  H
  H439     1.0000 0.25710  0.27080  0.33910  Biso   1.000  H
  H440     1.0000 0.01370  0.74290  0.33910  Biso   1.000  H
  H441     1.0000 0.72920  0.98630  0.33910  Biso   1.000  H
  H442     1.0000 0.74290  0.72920  0.83910  Biso   1.000  H
  H443     1.0000 0.98630  0.25710  0.83910  Biso   1.000  H
  H444     1.0000 0.27080  0.01370  0.83910  Biso   1.000  H
  C913     1.0000 0.69850  0.71890  0.36261  Biso   1.000  C
  C914     1.0000 0.28110  0.97960  0.36261  Biso   1.000  C
  C915     1.0000 0.02040  0.30150  0.36261  Biso   1.000  C
  C916     1.0000 0.30150  0.28110  0.86261  Biso   1.000  C
  C917     1.0000 0.71890  0.02040  0.86261  Biso   1.000  C
  C918     1.0000 0.97960  0.69850  0.86261  Biso   1.000  C
  C919     1.0000 0.71890  0.69850  0.63739  Biso   1.000  C
  C920     1.0000 0.97960  0.28110  0.63739  Biso   1.000  C
  C921     1.0000 0.30150  0.02040  0.63739  Biso   1.000  C
  C922     1.0000 0.28110  0.30150  0.13739  Biso   1.000  C
  C923     1.0000 0.02040  0.71890  0.13739  Biso   1.000  C
  C924     1.0000 0.69850  0.97960  0.13739  Biso   1.000  C
  C925     1.0000 0.30150  0.28110  0.63739  Biso   1.000  C
  C926     1.0000 0.71890  0.02040  0.63739  Biso   1.000  C
  C927     1.0000 0.97960  0.69850  0.63739  Biso   1.000  C
  C928     1.0000 0.69850  0.71890  0.13739  Biso   1.000  C
  C929     1.0000 0.28110  0.97960  0.13739  Biso   1.000  C
  C930     1.0000 0.02040  0.30150  0.13739  Biso   1.000  C
  C931     1.0000 0.28110  0.30150  0.36261  Biso   1.000  C
  C932     1.0000 0.02040  0.71890  0.36261  Biso   1.000  C
  C933     1.0000 0.69850  0.97960  0.36261  Biso   1.000  C
  C934     1.0000 0.71890  0.69850  0.86261  Biso   1.000  C
  C935     1.0000 0.97960  0.28110  0.86261  Biso   1.000  C
  C936     1.0000 0.30150  0.02040  0.86261  Biso   1.000  C
  C937     1.0000 0.67970  0.68330  0.37316  Biso   1.000  C
  C938     1.0000 0.31670  0.99640  0.37316  Biso   1.000  C
  C939     1.0000 0.00360  0.32030  0.37316  Biso   1.000  C
  C940     1.0000 0.32030  0.31670  0.87316  Biso   1.000  C
  C941     1.0000 0.68330  0.00360  0.87316  Biso   1.000  C
  C942     1.0000 0.99640  0.67970  0.87316  Biso   1.000  C
  C943     1.0000 0.68330  0.67970  0.62684  Biso   1.000  C
  C944     1.0000 0.99640  0.31670  0.62684  Biso   1.000  C
  C945     1.0000 0.32030  0.00360  0.62684  Biso   1.000  C
  C946     1.0000 0.31670  0.32030  0.12684  Biso   1.000  C
  C947     1.0000 0.00360  0.68330  0.12684  Biso   1.000  C
  C948     1.0000 0.67970  0.99640  0.12684  Biso   1.000  C
  C949     1.0000 0.32030  0.31670  0.62684  Biso   1.000  C
  C950     1.0000 0.68330  0.00360  0.62684  Biso   1.000  C
  C951     1.0000 0.99640  0.67970  0.62684  Biso   1.000  C
  C952     1.0000 0.67970  0.68330  0.12684  Biso   1.000  C
  C953     1.0000 0.31670  0.99640  0.12684  Biso   1.000  C
  C954     1.0000 0.00360  0.32030  0.12684  Biso   1.000  C
  C955     1.0000 0.31670  0.32030  0.37316  Biso   1.000  C
  C956     1.0000 0.00360  0.68330  0.37316  Biso   1.000  C
  C957     1.0000 0.67970  0.99640  0.37316  Biso   1.000  C
  C958     1.0000 0.68330  0.67970  0.87316  Biso   1.000  C
  C959     1.0000 0.99640  0.31670  0.87316  Biso   1.000  C
  C960     1.0000 0.32030  0.00360  0.87316  Biso   1.000  C
  H445     1.0000 0.66750  0.68360  0.38430  Biso   1.000  H
  H446     1.0000 0.31640  0.98390  0.38430  Biso   1.000  H
  H447     1.0000 0.01610  0.33250  0.38430  Biso   1.000  H
  H448     1.0000 0.33250  0.31640  0.88430  Biso   1.000  H
  H449     1.0000 0.68360  0.01610  0.88430  Biso   1.000  H
  H450     1.0000 0.98390  0.66750  0.88430  Biso   1.000  H
  H451     1.0000 0.68360  0.66750  0.61570  Biso   1.000  H
  H452     1.0000 0.98390  0.31640  0.61570  Biso   1.000  H
  H453     1.0000 0.33250  0.01610  0.61570  Biso   1.000  H
  H454     1.0000 0.31640  0.33250  0.11570  Biso   1.000  H
  H455     1.0000 0.01610  0.68360  0.11570  Biso   1.000  H
  H456     1.0000 0.66750  0.98390  0.11570  Biso   1.000  H
  H457     1.0000 0.33250  0.31640  0.61570  Biso   1.000  H
  H458     1.0000 0.68360  0.01610  0.61570  Biso   1.000  H
  H459     1.0000 0.98390  0.66750  0.61570  Biso   1.000  H
  H460     1.0000 0.66750  0.68360  0.11570  Biso   1.000  H
  H461     1.0000 0.31640  0.98390  0.11570  Biso   1.000  H
  H462     1.0000 0.01610  0.33250  0.11570  Biso   1.000  H
  H463     1.0000 0.31640  0.33250  0.38430  Biso   1.000  H
  H464     1.0000 0.01610  0.68360  0.38430  Biso   1.000  H
  H465     1.0000 0.66750  0.98390  0.38430  Biso   1.000  H
  H466     1.0000 0.68360  0.66750  0.88430  Biso   1.000  H
  H467     1.0000 0.98390  0.31640  0.88430  Biso   1.000  H
  H468     1.0000 0.33250  0.01610  0.88430  Biso   1.000  H
  C961     1.0000 0.67890  0.64730  0.36738  Biso   1.000  C
  C962     1.0000 0.35270  0.03160  0.36738  Biso   1.000  C
  C963     1.0000 0.96840  0.32110  0.36738  Biso   1.000  C
  C964     1.0000 0.32110  0.35270  0.86738  Biso   1.000  C
  C965     1.0000 0.64730  0.96840  0.86738  Biso   1.000  C
  C966     1.0000 0.03160  0.67890  0.86738  Biso   1.000  C
  C967     1.0000 0.64730  0.67890  0.63262  Biso   1.000  C
  C968     1.0000 0.03160  0.35270  0.63262  Biso   1.000  C
  C969     1.0000 0.32110  0.96840  0.63262  Biso   1.000  C
  C970     1.0000 0.35270  0.32110  0.13262  Biso   1.000  C
  C971     1.0000 0.96840  0.64730  0.13262  Biso   1.000  C
  C972     1.0000 0.67890  0.03160  0.13262  Biso   1.000  C
  C973     1.0000 0.32110  0.35270  0.63262  Biso   1.000  C
  C974     1.0000 0.64730  0.96840  0.63262  Biso   1.000  C
  C975     1.0000 0.03160  0.67890  0.63262  Biso   1.000  C
  C976     1.0000 0.67890  0.64730  0.13262  Biso   1.000  C
  C977     1.0000 0.35270  0.03160  0.13262  Biso   1.000  C
  C978     1.0000 0.96840  0.32110  0.13262  Biso   1.000  C
  C979     1.0000 0.35270  0.32110  0.36738  Biso   1.000  C
  C980     1.0000 0.96840  0.64730  0.36738  Biso   1.000  C
  C981     1.0000 0.67890  0.03160  0.36738  Biso   1.000  C
  C982     1.0000 0.64730  0.67890  0.86738  Biso   1.000  C
  C983     1.0000 0.03160  0.35270  0.86738  Biso   1.000  C
  C984     1.0000 0.32110  0.96840  0.86738  Biso   1.000  C
  C985     1.0000 0.69680  0.64700  0.35104  Biso   1.000  C
  C986     1.0000 0.35300  0.04980  0.35104  Biso   1.000  C
  C987     1.0000 0.95020  0.30320  0.35104  Biso   1.000  C
  C988     1.0000 0.30320  0.35300  0.85104  Biso   1.000  C
  C989     1.0000 0.64700  0.95020  0.85104  Biso   1.000  C
  C990     1.0000 0.04980  0.69680  0.85104  Biso   1.000  C
  C991     1.0000 0.64700  0.69680  0.64896  Biso   1.000  C
  C992     1.0000 0.04980  0.35300  0.64896  Biso   1.000  C
  C993     1.0000 0.30320  0.95020  0.64896  Biso   1.000  C
  C994     1.0000 0.35300  0.30320  0.14896  Biso   1.000  C
  C995     1.0000 0.95020  0.64700  0.14896  Biso   1.000  C
  C996     1.0000 0.69680  0.04980  0.14896  Biso   1.000  C
  C997     1.0000 0.30320  0.35300  0.64896  Biso   1.000  C
  C998     1.0000 0.64700  0.95020  0.64896  Biso   1.000  C
  C999     1.0000 0.04980  0.69680  0.64896  Biso   1.000  C
  C1000    1.0000 0.69680  0.64700  0.14896  Biso   1.000  C
  C1001    1.0000 0.35300  0.04980  0.14896  Biso   1.000  C
  C1002    1.0000 0.95020  0.30320  0.14896  Biso   1.000  C
  C1003    1.0000 0.35300  0.30320  0.35104  Biso   1.000  C
  C1004    1.0000 0.95020  0.64700  0.35104  Biso   1.000  C
  C1005    1.0000 0.69680  0.04980  0.35104  Biso   1.000  C
  C1006    1.0000 0.64700  0.69680  0.85104  Biso   1.000  C
  C1007    1.0000 0.04980  0.35300  0.85104  Biso   1.000  C
  C1008    1.0000 0.30320  0.95020  0.85104  Biso   1.000  C
  H469     1.0000 0.69630  0.62240  0.34710  Biso   1.000  H
  H470     1.0000 0.37760  0.07390  0.34710  Biso   1.000  H
  H471     1.0000 0.92610  0.30370  0.34710  Biso   1.000  H
  H472     1.0000 0.30370  0.37760  0.84710  Biso   1.000  H
  H473     1.0000 0.62240  0.92610  0.84710  Biso   1.000  H
  H474     1.0000 0.07390  0.69630  0.84710  Biso   1.000  H
  H475     1.0000 0.62240  0.69630  0.65290  Biso   1.000  H
  H476     1.0000 0.07390  0.37760  0.65290  Biso   1.000  H
  H477     1.0000 0.30370  0.92610  0.65290  Biso   1.000  H
  H478     1.0000 0.37760  0.30370  0.15290  Biso   1.000  H
  H479     1.0000 0.92610  0.62240  0.15290  Biso   1.000  H
  H480     1.0000 0.69630  0.07390  0.15290  Biso   1.000  H
  H481     1.0000 0.30370  0.37760  0.65290  Biso   1.000  H
  H482     1.0000 0.62240  0.92610  0.65290  Biso   1.000  H
  H483     1.0000 0.07390  0.69630  0.65290  Biso   1.000  H
  H484     1.0000 0.69630  0.62240  0.15290  Biso   1.000  H
  H485     1.0000 0.37760  0.07390  0.15290  Biso   1.000  H
  H486     1.0000 0.92610  0.30370  0.15290  Biso   1.000  H
  H487     1.0000 0.37760  0.30370  0.34710  Biso   1.000  H
  H488     1.0000 0.92610  0.62240  0.34710  Biso   1.000  H
  H489     1.0000 0.69630  0.07390  0.34710  Biso   1.000  H
  H490     1.0000 0.62240  0.69630  0.84710  Biso   1.000  H
  H491     1.0000 0.07390  0.37760  0.84710  Biso   1.000  H
  H492     1.0000 0.30370  0.92610  0.84710  Biso   1.000  H
  C1009    1.0000 0.69570  0.75500  0.36880  Biso   1.000  C
  C1010    1.0000 0.24500  0.94070  0.36880  Biso   1.000  C
  C1011    1.0000 0.05930  0.30430  0.36880  Biso   1.000  C
  C1012    1.0000 0.30430  0.24500  0.86880  Biso   1.000  C
  C1013    1.0000 0.75500  0.05930  0.86880  Biso   1.000  C
  C1014    1.0000 0.94070  0.69570  0.86880  Biso   1.000  C
  C1015    1.0000 0.75500  0.69570  0.63120  Biso   1.000  C
  C1016    1.0000 0.94070  0.24500  0.63120  Biso   1.000  C
  C1017    1.0000 0.30430  0.05930  0.63120  Biso   1.000  C
  C1018    1.0000 0.24500  0.30430  0.13120  Biso   1.000  C
  C1019    1.0000 0.05930  0.75500  0.13120  Biso   1.000  C
  C1020    1.0000 0.69570  0.94070  0.13120  Biso   1.000  C
  C1021    1.0000 0.30430  0.24500  0.63120  Biso   1.000  C
  C1022    1.0000 0.75500  0.05930  0.63120  Biso   1.000  C
  C1023    1.0000 0.94070  0.69570  0.63120  Biso   1.000  C
  C1024    1.0000 0.69570  0.75500  0.13120  Biso   1.000  C
  C1025    1.0000 0.24500  0.94070  0.13120  Biso   1.000  C
  C1026    1.0000 0.05930  0.30430  0.13120  Biso   1.000  C
  C1027    1.0000 0.24500  0.30430  0.36880  Biso   1.000  C
  C1028    1.0000 0.05930  0.75500  0.36880  Biso   1.000  C
  C1029    1.0000 0.69570  0.94070  0.36880  Biso   1.000  C
  C1030    1.0000 0.75500  0.69570  0.86880  Biso   1.000  C
  C1031    1.0000 0.94070  0.24500  0.86880  Biso   1.000  C
  C1032    1.0000 0.30430  0.05930  0.86880  Biso   1.000  C
  C1033    1.0000 0.69970  0.78520  0.37630  Biso   1.000  C
  C1034    1.0000 0.21480  0.91450  0.37630  Biso   1.000  C
  C1035    1.0000 0.08550  0.30030  0.37630  Biso   1.000  C
  C1036    1.0000 0.30030  0.21480  0.87630  Biso   1.000  C
  C1037    1.0000 0.78520  0.08550  0.87630  Biso   1.000  C
  C1038    1.0000 0.91450  0.69970  0.87630  Biso   1.000  C
  C1039    1.0000 0.78520  0.69970  0.62370  Biso   1.000  C
  C1040    1.0000 0.91450  0.21480  0.62370  Biso   1.000  C
  C1041    1.0000 0.30030  0.08550  0.62370  Biso   1.000  C
  C1042    1.0000 0.21480  0.30030  0.12370  Biso   1.000  C
  C1043    1.0000 0.08550  0.78520  0.12370  Biso   1.000  C
  C1044    1.0000 0.69970  0.91450  0.12370  Biso   1.000  C
  C1045    1.0000 0.30030  0.21480  0.62370  Biso   1.000  C
  C1046    1.0000 0.78520  0.08550  0.62370  Biso   1.000  C
  C1047    1.0000 0.91450  0.69970  0.62370  Biso   1.000  C
  C1048    1.0000 0.69970  0.78520  0.12370  Biso   1.000  C
  C1049    1.0000 0.21480  0.91450  0.12370  Biso   1.000  C
  C1050    1.0000 0.08550  0.30030  0.12370  Biso   1.000  C
  C1051    1.0000 0.21480  0.30030  0.37630  Biso   1.000  C
  C1052    1.0000 0.08550  0.78520  0.37630  Biso   1.000  C
  C1053    1.0000 0.69970  0.91450  0.37630  Biso   1.000  C
  C1054    1.0000 0.78520  0.69970  0.87630  Biso   1.000  C
  C1055    1.0000 0.91450  0.21480  0.87630  Biso   1.000  C
  C1056    1.0000 0.30030  0.08550  0.87630  Biso   1.000  C
  C1057    1.0000 0.69450  0.81700  0.38460  Biso   1.000  C
  C1058    1.0000 0.18300  0.87750  0.38460  Biso   1.000  C
  C1059    1.0000 0.12250  0.30550  0.38460  Biso   1.000  C
  C1060    1.0000 0.30550  0.18300  0.88460  Biso   1.000  C
  C1061    1.0000 0.81700  0.12250  0.88460  Biso   1.000  C
  C1062    1.0000 0.87750  0.69450  0.88460  Biso   1.000  C
  C1063    1.0000 0.81700  0.69450  0.61540  Biso   1.000  C
  C1064    1.0000 0.87750  0.18300  0.61540  Biso   1.000  C
  C1065    1.0000 0.30550  0.12250  0.61540  Biso   1.000  C
  C1066    1.0000 0.18300  0.30550  0.11540  Biso   1.000  C
  C1067    1.0000 0.12250  0.81700  0.11540  Biso   1.000  C
  C1068    1.0000 0.69450  0.87750  0.11540  Biso   1.000  C
  C1069    1.0000 0.30550  0.18300  0.61540  Biso   1.000  C
  C1070    1.0000 0.81700  0.12250  0.61540  Biso   1.000  C
  C1071    1.0000 0.87750  0.69450  0.61540  Biso   1.000  C
  C1072    1.0000 0.69450  0.81700  0.11540  Biso   1.000  C
  C1073    1.0000 0.18300  0.87750  0.11540  Biso   1.000  C
  C1074    1.0000 0.12250  0.30550  0.11540  Biso   1.000  C
  C1075    1.0000 0.18300  0.30550  0.38460  Biso   1.000  C
  C1076    1.0000 0.12250  0.81700  0.38460  Biso   1.000  C
  C1077    1.0000 0.69450  0.87750  0.38460  Biso   1.000  C
  C1078    1.0000 0.81700  0.69450  0.88460  Biso   1.000  C
  C1079    1.0000 0.87750  0.18300  0.88460  Biso   1.000  C
  C1080    1.0000 0.30550  0.12250  0.88460  Biso   1.000  C
  C1081    1.0000 0.70190  0.85090  0.37630  Biso   1.000  C
  C1082    1.0000 0.14910  0.85100  0.37630  Biso   1.000  C
  C1083    1.0000 0.14900  0.29810  0.37630  Biso   1.000  C
  C1084    1.0000 0.29810  0.14910  0.87630  Biso   1.000  C
  C1085    1.0000 0.85090  0.14900  0.87630  Biso   1.000  C
  C1086    1.0000 0.85100  0.70190  0.87630  Biso   1.000  C
  C1087    1.0000 0.85090  0.70190  0.62370  Biso   1.000  C
  C1088    1.0000 0.85100  0.14910  0.62370  Biso   1.000  C
  C1089    1.0000 0.29810  0.14900  0.62370  Biso   1.000  C
  C1090    1.0000 0.14910  0.29810  0.12370  Biso   1.000  C
  C1091    1.0000 0.14900  0.85090  0.12370  Biso   1.000  C
  C1092    1.0000 0.70190  0.85100  0.12370  Biso   1.000  C
  H493     1.0000 0.71240  0.85620  0.36430  Biso   1.000  H
  H494     1.0000 0.14380  0.85620  0.36430  Biso   1.000  H
  H495     1.0000 0.14380  0.28760  0.36430  Biso   1.000  H
  H496     1.0000 0.28760  0.14380  0.86430  Biso   1.000  H
  H497     1.0000 0.85620  0.14380  0.86430  Biso   1.000  H
  H498     1.0000 0.85620  0.71240  0.86430  Biso   1.000  H
  H499     1.0000 0.85620  0.71240  0.63570  Biso   1.000  H
  H500     1.0000 0.85620  0.14380  0.63570  Biso   1.000  H
  H501     1.0000 0.28760  0.14380  0.63570  Biso   1.000  H
  H502     1.0000 0.14380  0.28760  0.13570  Biso   1.000  H
  H503     1.0000 0.14380  0.85620  0.13570  Biso   1.000  H
  H504     1.0000 0.71240  0.85620  0.13570  Biso   1.000  H
  C1093    1.0000 0.67890  0.80570  0.40220  Biso   1.000  C
  C1094    1.0000 0.19430  0.87320  0.40220  Biso   1.000  C
  C1095    1.0000 0.12680  0.32110  0.40220  Biso   1.000  C
  C1096    1.0000 0.32110  0.19430  0.90220  Biso   1.000  C
  C1097    1.0000 0.80570  0.12680  0.90220  Biso   1.000  C
  C1098    1.0000 0.87320  0.67890  0.90220  Biso   1.000  C
  C1099    1.0000 0.80570  0.67890  0.59780  Biso   1.000  C
  C1100    1.0000 0.87320  0.19430  0.59780  Biso   1.000  C
  C1101    1.0000 0.32110  0.12680  0.59780  Biso   1.000  C
  C1102    1.0000 0.19430  0.32110  0.09780  Biso   1.000  C
  C1103    1.0000 0.12680  0.80570  0.09780  Biso   1.000  C
  C1104    1.0000 0.67890  0.87320  0.09780  Biso   1.000  C
  C1105    1.0000 0.32110  0.19430  0.59780  Biso   1.000  C
  C1106    1.0000 0.80570  0.12680  0.59780  Biso   1.000  C
  C1107    1.0000 0.87320  0.67890  0.59780  Biso   1.000  C
  C1108    1.0000 0.67890  0.80570  0.09780  Biso   1.000  C
  C1109    1.0000 0.19430  0.87320  0.09780  Biso   1.000  C
  C1110    1.0000 0.12680  0.32110  0.09780  Biso   1.000  C
  C1111    1.0000 0.19430  0.32110  0.40220  Biso   1.000  C
  C1112    1.0000 0.12680  0.80570  0.40220  Biso   1.000  C
  C1113    1.0000 0.67890  0.87320  0.40220  Biso   1.000  C
  C1114    1.0000 0.80570  0.67890  0.90220  Biso   1.000  C
  C1115    1.0000 0.87320  0.19430  0.90220  Biso   1.000  C
  C1116    1.0000 0.32110  0.12680  0.90220  Biso   1.000  C
  H505     1.0000 0.67400  0.78070  0.40780  Biso   1.000  H
  H506     1.0000 0.21930  0.89330  0.40780  Biso   1.000  H
  H507     1.0000 0.10670  0.32600  0.40780  Biso   1.000  H
  H508     1.0000 0.32600  0.21930  0.90780  Biso   1.000  H
  H509     1.0000 0.78070  0.10670  0.90780  Biso   1.000  H
  H510     1.0000 0.89330  0.67400  0.90780  Biso   1.000  H
  H511     1.0000 0.78070  0.67400  0.59220  Biso   1.000  H
  H512     1.0000 0.89330  0.21930  0.59220  Biso   1.000  H
  H513     1.0000 0.32600  0.10670  0.59220  Biso   1.000  H
  H514     1.0000 0.21930  0.32600  0.09220  Biso   1.000  H
  H515     1.0000 0.10670  0.78070  0.09220  Biso   1.000  H
  H516     1.0000 0.67400  0.89330  0.09220  Biso   1.000  H
  H517     1.0000 0.32600  0.21930  0.59220  Biso   1.000  H
  H518     1.0000 0.78070  0.10670  0.59220  Biso   1.000  H
  H519     1.0000 0.89330  0.67400  0.59220  Biso   1.000  H
  H520     1.0000 0.67400  0.78070  0.09220  Biso   1.000  H
  H521     1.0000 0.21930  0.89330  0.09220  Biso   1.000  H
  H522     1.0000 0.10670  0.32600  0.09220  Biso   1.000  H
  H523     1.0000 0.21930  0.32600  0.40780  Biso   1.000  H
  H524     1.0000 0.10670  0.78070  0.40780  Biso   1.000  H
  H525     1.0000 0.67400  0.89330  0.40780  Biso   1.000  H
  H526     1.0000 0.78070  0.67400  0.90780  Biso   1.000  H
  H527     1.0000 0.89330  0.21930  0.90780  Biso   1.000  H
  H528     1.0000 0.32600  0.10670  0.90780  Biso   1.000  H
  C1117    1.0000 0.67110  0.83550  0.41090  Biso   1.000  C
  C1118    1.0000 0.16450  0.83560  0.41090  Biso   1.000  C
  C1119    1.0000 0.16440  0.32890  0.41090  Biso   1.000  C
  C1120    1.0000 0.32890  0.16450  0.91090  Biso   1.000  C
  C1121    1.0000 0.83550  0.16440  0.91090  Biso   1.000  C
  C1122    1.0000 0.83560  0.67110  0.91090  Biso   1.000  C
  C1123    1.0000 0.83550  0.67110  0.58910  Biso   1.000  C
  C1124    1.0000 0.83560  0.16450  0.58910  Biso   1.000  C
  C1125    1.0000 0.32890  0.16440  0.58910  Biso   1.000  C
  C1126    1.0000 0.16450  0.32890  0.08910  Biso   1.000  C
  C1127    1.0000 0.16440  0.83550  0.08910  Biso   1.000  C
  C1128    1.0000 0.67110  0.83560  0.08910  Biso   1.000  C
  C1129    1.0000 0.65580  0.82790  0.42860  Biso   1.000  C
  C1130    1.0000 0.17210  0.82790  0.42860  Biso   1.000  C
  C1131    1.0000 0.17210  0.34420  0.42860  Biso   1.000  C
  C1132    1.0000 0.34420  0.17210  0.92860  Biso   1.000  C
  C1133    1.0000 0.82790  0.17210  0.92860  Biso   1.000  C
  C1134    1.0000 0.82790  0.65580  0.92860  Biso   1.000  C
  C1135    1.0000 0.82790  0.65580  0.57140  Biso   1.000  C
  C1136    1.0000 0.82790  0.17210  0.57140  Biso   1.000  C
  C1137    1.0000 0.34420  0.17210  0.57140  Biso   1.000  C
  C1138    1.0000 0.17210  0.34420  0.07140  Biso   1.000  C
  C1139    1.0000 0.17210  0.82790  0.07140  Biso   1.000  C
  C1140    1.0000 0.65580  0.82790  0.07140  Biso   1.000  C
  C1141    1.0000 0.63410  0.81700  0.44120  Biso   1.000  C
  C1142    1.0000 0.18300  0.81710  0.44120  Biso   1.000  C
  C1143    1.0000 0.18290  0.36590  0.44120  Biso   1.000  C
  C1144    1.0000 0.36590  0.18300  0.94120  Biso   1.000  C
  C1145    1.0000 0.81700  0.18290  0.94120  Biso   1.000  C
  C1146    1.0000 0.81710  0.63410  0.94120  Biso   1.000  C
  C1147    1.0000 0.81700  0.63410  0.55880  Biso   1.000  C
  C1148    1.0000 0.81710  0.18300  0.55880  Biso   1.000  C
  C1149    1.0000 0.36590  0.18290  0.55880  Biso   1.000  C
  C1150    1.0000 0.18300  0.36590  0.05880  Biso   1.000  C
  C1151    1.0000 0.18290  0.81700  0.05880  Biso   1.000  C
  C1152    1.0000 0.63410  0.81710  0.05880  Biso   1.000  C
  C1153    1.0000 0.57150  0.78570  0.49100  Biso   1.000  C
  C1154    1.0000 0.21430  0.78580  0.49100  Biso   1.000  C
  C1155    1.0000 0.21420  0.42850  0.49100  Biso   1.000  C
  C1156    1.0000 0.42850  0.21430  0.99100  Biso   1.000  C
  C1157    1.0000 0.78570  0.21420  0.99100  Biso   1.000  C
  C1158    1.0000 0.78580  0.57150  0.99100  Biso   1.000  C
  C1159    1.0000 0.78570  0.57150  0.50900  Biso   1.000  C
  C1160    1.0000 0.78580  0.21430  0.50900  Biso   1.000  C
  C1161    1.0000 0.42850  0.21420  0.50900  Biso   1.000  C
  C1162    1.0000 0.21430  0.42850  0.00900  Biso   1.000  C
  C1163    1.0000 0.21420  0.78570  0.00900  Biso   1.000  C
  C1164    1.0000 0.57150  0.78580  0.00900  Biso   1.000  C
  C1165    1.0000 0.60920  0.82210  0.48920  Biso   1.000  C
  C1166    1.0000 0.17790  0.78710  0.48920  Biso   1.000  C
  C1167    1.0000 0.21290  0.39080  0.48920  Biso   1.000  C
  C1168    1.0000 0.39080  0.17790  0.98920  Biso   1.000  C
  C1169    1.0000 0.82210  0.21290  0.98920  Biso   1.000  C
  C1170    1.0000 0.78710  0.60920  0.98920  Biso   1.000  C
  C1171    1.0000 0.82210  0.60920  0.51080  Biso   1.000  C
  C1172    1.0000 0.78710  0.17790  0.51080  Biso   1.000  C
  C1173    1.0000 0.39080  0.21290  0.51080  Biso   1.000  C
  C1174    1.0000 0.17790  0.39080  0.01080  Biso   1.000  C
  C1175    1.0000 0.21290  0.82210  0.01080  Biso   1.000  C
  C1176    1.0000 0.60920  0.78710  0.01080  Biso   1.000  C
  C1177    1.0000 0.39080  0.17790  0.51080  Biso   1.000  C
  C1178    1.0000 0.82210  0.21290  0.51080  Biso   1.000  C
  C1179    1.0000 0.78710  0.60920  0.51080  Biso   1.000  C
  C1180    1.0000 0.60920  0.82210  0.01080  Biso   1.000  C
  C1181    1.0000 0.17790  0.78710  0.01080  Biso   1.000  C
  C1182    1.0000 0.21290  0.39080  0.01080  Biso   1.000  C
  C1183    1.0000 0.17790  0.39080  0.48920  Biso   1.000  C
  C1184    1.0000 0.21290  0.82210  0.48920  Biso   1.000  C
  C1185    1.0000 0.60920  0.78710  0.48920  Biso   1.000  C
  C1186    1.0000 0.82210  0.60920  0.98920  Biso   1.000  C
  C1187    1.0000 0.78710  0.17790  0.98920  Biso   1.000  C
  C1188    1.0000 0.39080  0.21290  0.98920  Biso   1.000  C
  H529     1.0000 0.62040  0.84080  0.49910  Biso   1.000  H
  H530     1.0000 0.15920  0.77960  0.49910  Biso   1.000  H
  H531     1.0000 0.22040  0.37960  0.49910  Biso   1.000  H
  H532     1.0000 0.37960  0.15920  0.99910  Biso   1.000  H
  H533     1.0000 0.84080  0.22040  0.99910  Biso   1.000  H
  H534     1.0000 0.77960  0.62040  0.99910  Biso   1.000  H
  H535     1.0000 0.84080  0.62040  0.50090  Biso   1.000  H
  H536     1.0000 0.77960  0.15920  0.50090  Biso   1.000  H
  H537     1.0000 0.37960  0.22040  0.50090  Biso   1.000  H
  H538     1.0000 0.15920  0.37960  0.00090  Biso   1.000  H
  H539     1.0000 0.22040  0.84080  0.00090  Biso   1.000  H
  H540     1.0000 0.62040  0.77960  0.00090  Biso   1.000  H
  H541     1.0000 0.37960  0.15920  0.50090  Biso   1.000  H
  H542     1.0000 0.84080  0.22040  0.50090  Biso   1.000  H
  H543     1.0000 0.77960  0.62040  0.50090  Biso   1.000  H
  H544     1.0000 0.62040  0.84080  0.00090  Biso   1.000  H
  H545     1.0000 0.15920  0.77960  0.00090  Biso   1.000  H
  H546     1.0000 0.22040  0.37960  0.00090  Biso   1.000  H
  H547     1.0000 0.15920  0.37960  0.49910  Biso   1.000  H
  H548     1.0000 0.22040  0.84080  0.49910  Biso   1.000  H
  H549     1.0000 0.62040  0.77960  0.49910  Biso   1.000  H
  H550     1.0000 0.84080  0.62040  0.99910  Biso   1.000  H
  H551     1.0000 0.77960  0.15920  0.99910  Biso   1.000  H
  H552     1.0000 0.37960  0.22040  0.99910  Biso   1.000  H
  C1189    1.0000 0.63060  0.83150  0.47300  Biso   1.000  C
  C1190    1.0000 0.16850  0.79910  0.47300  Biso   1.000  C
  C1191    1.0000 0.20090  0.36940  0.47300  Biso   1.000  C
  C1192    1.0000 0.36940  0.16850  0.97300  Biso   1.000  C
  C1193    1.0000 0.83150  0.20090  0.97300  Biso   1.000  C
  C1194    1.0000 0.79910  0.63060  0.97300  Biso   1.000  C
  C1195    1.0000 0.83150  0.63060  0.52700  Biso   1.000  C
  C1196    1.0000 0.79910  0.16850  0.52700  Biso   1.000  C
  C1197    1.0000 0.36940  0.20090  0.52700  Biso   1.000  C
  C1198    1.0000 0.16850  0.36940  0.02700  Biso   1.000  C
  C1199    1.0000 0.20090  0.83150  0.02700  Biso   1.000  C
  C1200    1.0000 0.63060  0.79910  0.02700  Biso   1.000  C
  C1201    1.0000 0.36940  0.16850  0.52700  Biso   1.000  C
  C1202    1.0000 0.83150  0.20090  0.52700  Biso   1.000  C
  C1203    1.0000 0.79910  0.63060  0.52700  Biso   1.000  C
  C1204    1.0000 0.63060  0.83150  0.02700  Biso   1.000  C
  C1205    1.0000 0.16850  0.79910  0.02700  Biso   1.000  C
  C1206    1.0000 0.20090  0.36940  0.02700  Biso   1.000  C
  C1207    1.0000 0.16850  0.36940  0.47300  Biso   1.000  C
  C1208    1.0000 0.20090  0.83150  0.47300  Biso   1.000  C
  C1209    1.0000 0.63060  0.79910  0.47300  Biso   1.000  C
  C1210    1.0000 0.83150  0.63060  0.97300  Biso   1.000  C
  C1211    1.0000 0.79910  0.16850  0.97300  Biso   1.000  C
  C1212    1.0000 0.36940  0.20090  0.97300  Biso   1.000  C
  H553     1.0000 0.65710  0.85600  0.47210  Biso   1.000  H
  H554     1.0000 0.14400  0.80110  0.47210  Biso   1.000  H
  H555     1.0000 0.19890  0.34290  0.47210  Biso   1.000  H
  H556     1.0000 0.34290  0.14400  0.97210  Biso   1.000  H
  H557     1.0000 0.85600  0.19890  0.97210  Biso   1.000  H
  H558     1.0000 0.80110  0.65710  0.97210  Biso   1.000  H
  H559     1.0000 0.85600  0.65710  0.52790  Biso   1.000  H
  H560     1.0000 0.80110  0.14400  0.52790  Biso   1.000  H
  H561     1.0000 0.34290  0.19890  0.52790  Biso   1.000  H
  H562     1.0000 0.14400  0.34290  0.02790  Biso   1.000  H
  H563     1.0000 0.19890  0.85600  0.02790  Biso   1.000  H
  H564     1.0000 0.65710  0.80110  0.02790  Biso   1.000  H
  H565     1.0000 0.34290  0.14400  0.52790  Biso   1.000  H
  H566     1.0000 0.85600  0.19890  0.52790  Biso   1.000  H
  H567     1.0000 0.80110  0.65710  0.52790  Biso   1.000  H
  H568     1.0000 0.65710  0.85600  0.02790  Biso   1.000  H
  H569     1.0000 0.14400  0.80110  0.02790  Biso   1.000  H
  H570     1.0000 0.19890  0.34290  0.02790  Biso   1.000  H
  H571     1.0000 0.14400  0.34290  0.47210  Biso   1.000  H
  H572     1.0000 0.19890  0.85600  0.47210  Biso   1.000  H
  H573     1.0000 0.65710  0.80110  0.47210  Biso   1.000  H
  H574     1.0000 0.85600  0.65710  0.97210  Biso   1.000  H
  H575     1.0000 0.80110  0.14400  0.97210  Biso   1.000  H
  H576     1.0000 0.34290  0.19890  0.97210  Biso   1.000  H
  C1213    1.0000 0.61440  0.80630  0.45870  Biso   1.000  C
  C1214    1.0000 0.19370  0.80810  0.45870  Biso   1.000  C
  C1215    1.0000 0.19190  0.38560  0.45870  Biso   1.000  C
  C1216    1.0000 0.38560  0.19370  0.95870  Biso   1.000  C
  C1217    1.0000 0.80630  0.19190  0.95870  Biso   1.000  C
  C1218    1.0000 0.80810  0.61440  0.95870  Biso   1.000  C
  C1219    1.0000 0.80630  0.61440  0.54130  Biso   1.000  C
  C1220    1.0000 0.80810  0.19370  0.54130  Biso   1.000  C
  C1221    1.0000 0.38560  0.19190  0.54130  Biso   1.000  C
  C1222    1.0000 0.19370  0.38560  0.04130  Biso   1.000  C
  C1223    1.0000 0.19190  0.80630  0.04130  Biso   1.000  C
  C1224    1.0000 0.61440  0.80810  0.04130  Biso   1.000  C
  C1225    1.0000 0.38560  0.19370  0.54130  Biso   1.000  C
  C1226    1.0000 0.80630  0.19190  0.54130  Biso   1.000  C
  C1227    1.0000 0.80810  0.61440  0.54130  Biso   1.000  C
  C1228    1.0000 0.61440  0.80630  0.04130  Biso   1.000  C
  C1229    1.0000 0.19370  0.80810  0.04130  Biso   1.000  C
  C1230    1.0000 0.19190  0.38560  0.04130  Biso   1.000  C
  C1231    1.0000 0.19370  0.38560  0.45870  Biso   1.000  C
  C1232    1.0000 0.19190  0.80630  0.45870  Biso   1.000  C
  C1233    1.0000 0.61440  0.80810  0.45870  Biso   1.000  C
  C1234    1.0000 0.80630  0.61440  0.95870  Biso   1.000  C
  C1235    1.0000 0.80810  0.19370  0.95870  Biso   1.000  C
  C1236    1.0000 0.38560  0.19190  0.95870  Biso   1.000  C
  C1237    1.0000 0.57670  0.76720  0.46050  Biso   1.000  C
  C1238    1.0000 0.23280  0.80950  0.46050  Biso   1.000  C
  C1239    1.0000 0.19050  0.42330  0.46050  Biso   1.000  C
  C1240    1.0000 0.42330  0.23280  0.96050  Biso   1.000  C
  C1241    1.0000 0.76720  0.19050  0.96050  Biso   1.000  C
  C1242    1.0000 0.80950  0.57670  0.96050  Biso   1.000  C
  C1243    1.0000 0.76720  0.57670  0.53950  Biso   1.000  C
  C1244    1.0000 0.80950  0.23280  0.53950  Biso   1.000  C
  C1245    1.0000 0.42330  0.19050  0.53950  Biso   1.000  C
  C1246    1.0000 0.23280  0.42330  0.03950  Biso   1.000  C
  C1247    1.0000 0.19050  0.76720  0.03950  Biso   1.000  C
  C1248    1.0000 0.57670  0.80950  0.03950  Biso   1.000  C
  C1249    1.0000 0.42330  0.23280  0.53950  Biso   1.000  C
  C1250    1.0000 0.76720  0.19050  0.53950  Biso   1.000  C
  C1251    1.0000 0.80950  0.57670  0.53950  Biso   1.000  C
  C1252    1.0000 0.57670  0.76720  0.03950  Biso   1.000  C
  C1253    1.0000 0.23280  0.80950  0.03950  Biso   1.000  C
  C1254    1.0000 0.19050  0.42330  0.03950  Biso   1.000  C
  C1255    1.0000 0.23280  0.42330  0.46050  Biso   1.000  C
  C1256    1.0000 0.19050  0.76720  0.46050  Biso   1.000  C
  C1257    1.0000 0.57670  0.80950  0.46050  Biso   1.000  C
  C1258    1.0000 0.76720  0.57670  0.96050  Biso   1.000  C
  C1259    1.0000 0.80950  0.23280  0.96050  Biso   1.000  C
  C1260    1.0000 0.42330  0.19050  0.96050  Biso   1.000  C
  H577     1.0000 0.56660  0.74800  0.45080  Biso   1.000  H
  H578     1.0000 0.25200  0.81860  0.45080  Biso   1.000  H
  H579     1.0000 0.18140  0.43340  0.45080  Biso   1.000  H
  H580     1.0000 0.43340  0.25200  0.95080  Biso   1.000  H
  H581     1.0000 0.74800  0.18140  0.95080  Biso   1.000  H
  H582     1.0000 0.81860  0.56660  0.95080  Biso   1.000  H
  H583     1.0000 0.74800  0.56660  0.54920  Biso   1.000  H
  H584     1.0000 0.81860  0.25200  0.54920  Biso   1.000  H
  H585     1.0000 0.43340  0.18140  0.54920  Biso   1.000  H
  H586     1.0000 0.25200  0.43340  0.04920  Biso   1.000  H
  H587     1.0000 0.18140  0.74800  0.04920  Biso   1.000  H
  H588     1.0000 0.56660  0.81860  0.04920  Biso   1.000  H
  H589     1.0000 0.43340  0.25200  0.54920  Biso   1.000  H
  H590     1.0000 0.74800  0.18140  0.54920  Biso   1.000  H
  H591     1.0000 0.81860  0.56660  0.54920  Biso   1.000  H
  H592     1.0000 0.56660  0.74800  0.04920  Biso   1.000  H
  H593     1.0000 0.25200  0.81860  0.04920  Biso   1.000  H
  H594     1.0000 0.18140  0.43340  0.04920  Biso   1.000  H
  H595     1.0000 0.25200  0.43340  0.45080  Biso   1.000  H
  H596     1.0000 0.18140  0.74800  0.45080  Biso   1.000  H
  H597     1.0000 0.56660  0.81860  0.45080  Biso   1.000  H
  H598     1.0000 0.74800  0.56660  0.95080  Biso   1.000  H
  H599     1.0000 0.81860  0.25200  0.95080  Biso   1.000  H
  H600     1.0000 0.43340  0.18140  0.95080  Biso   1.000  H
  C1261    1.0000 0.55530  0.75790  0.47670  Biso   1.000  C
  C1262    1.0000 0.24210  0.79740  0.47670  Biso   1.000  C
  C1263    1.0000 0.20260  0.44470  0.47670  Biso   1.000  C
  C1264    1.0000 0.44470  0.24210  0.97670  Biso   1.000  C
  C1265    1.0000 0.75790  0.20260  0.97670  Biso   1.000  C
  C1266    1.0000 0.79740  0.55530  0.97670  Biso   1.000  C
  C1267    1.0000 0.75790  0.55530  0.52330  Biso   1.000  C
  C1268    1.0000 0.79740  0.24210  0.52330  Biso   1.000  C
  C1269    1.0000 0.44470  0.20260  0.52330  Biso   1.000  C
  C1270    1.0000 0.24210  0.44470  0.02330  Biso   1.000  C
  C1271    1.0000 0.20260  0.75790  0.02330  Biso   1.000  C
  C1272    1.0000 0.55530  0.79740  0.02330  Biso   1.000  C
  C1273    1.0000 0.44470  0.24210  0.52330  Biso   1.000  C
  C1274    1.0000 0.75790  0.20260  0.52330  Biso   1.000  C
  C1275    1.0000 0.79740  0.55530  0.52330  Biso   1.000  C
  C1276    1.0000 0.55530  0.75790  0.02330  Biso   1.000  C
  C1277    1.0000 0.24210  0.79740  0.02330  Biso   1.000  C
  C1278    1.0000 0.20260  0.44470  0.02330  Biso   1.000  C
  C1279    1.0000 0.24210  0.44470  0.47670  Biso   1.000  C
  C1280    1.0000 0.20260  0.75790  0.47670  Biso   1.000  C
  C1281    1.0000 0.55530  0.79740  0.47670  Biso   1.000  C
  C1282    1.0000 0.75790  0.55530  0.97670  Biso   1.000  C
  C1283    1.0000 0.79740  0.24210  0.97670  Biso   1.000  C
  C1284    1.0000 0.44470  0.20260  0.97670  Biso   1.000  C
  H601     1.0000 0.52960  0.73260  0.47800  Biso   1.000  H
  H602     1.0000 0.26740  0.79700  0.47800  Biso   1.000  H
  H603     1.0000 0.20300  0.47040  0.47800  Biso   1.000  H
  H604     1.0000 0.47040  0.26740  0.97800  Biso   1.000  H
  H605     1.0000 0.73260  0.20300  0.97800  Biso   1.000  H
  H606     1.0000 0.79700  0.52960  0.97800  Biso   1.000  H
  H607     1.0000 0.73260  0.52960  0.52200  Biso   1.000  H
  H608     1.0000 0.79700  0.26740  0.52200  Biso   1.000  H
  H609     1.0000 0.47040  0.20300  0.52200  Biso   1.000  H
  H610     1.0000 0.26740  0.47040  0.02200  Biso   1.000  H
  H611     1.0000 0.20300  0.73260  0.02200  Biso   1.000  H
  H612     1.0000 0.52960  0.79700  0.02200  Biso   1.000  H
  H613     1.0000 0.47040  0.26740  0.52200  Biso   1.000  H
  H614     1.0000 0.73260  0.20300  0.52200  Biso   1.000  H
  H615     1.0000 0.79700  0.52960  0.52200  Biso   1.000  H
  H616     1.0000 0.52960  0.73260  0.02200  Biso   1.000  H
  H617     1.0000 0.26740  0.79700  0.02200  Biso   1.000  H
  H618     1.0000 0.20300  0.47040  0.02200  Biso   1.000  H
  H619     1.0000 0.26740  0.47040  0.47800  Biso   1.000  H
  H620     1.0000 0.20300  0.73260  0.47800  Biso   1.000  H
  H621     1.0000 0.52960  0.79700  0.47800  Biso   1.000  H
  H622     1.0000 0.73260  0.52960  0.97800  Biso   1.000  H
  H623     1.0000 0.79700  0.26740  0.97800  Biso   1.000  H
  H624     1.0000 0.47040  0.20300  0.97800  Biso   1.000  H
  N13      1.0000 0.54930  0.77460  0.50730  Biso   1.000  N
  N14      1.0000 0.22540  0.77470  0.50730  Biso   1.000  N
  N15      1.0000 0.22530  0.45070  0.50730  Biso   1.000  N
  N16      1.0000 0.45070  0.22540  0.00730  Biso   1.000  N
  N17      1.0000 0.77460  0.22530  0.00730  Biso   1.000  N
  N18      1.0000 0.77470  0.54930  0.00730  Biso   1.000  N
  N19      1.0000 0.77460  0.54930  0.49270  Biso   1.000  N
  N20      1.0000 0.77470  0.22540  0.49270  Biso   1.000  N
  N21      1.0000 0.45070  0.22530  0.49270  Biso   1.000  N
  N22      1.0000 0.22540  0.45070  0.99270  Biso   1.000  N
  N23      1.0000 0.22530  0.77460  0.99270  Biso   1.000  N
  N24      1.0000 0.54930  0.77470  0.99270  Biso   1.000  N
  C1285    1.0000 0.79800  0.67830  0.27520  Biso   1.000  C
  C1286    1.0000 0.32170  0.11970  0.27520  Biso   1.000  C
  C1287    1.0000 0.88030  0.20200  0.27520  Biso   1.000  C
  C1288    1.0000 0.20200  0.32170  0.77520  Biso   1.000  C
  C1289    1.0000 0.67830  0.88030  0.77520  Biso   1.000  C
  C1290    1.0000 0.11970  0.79800  0.77520  Biso   1.000  C
  C1291    1.0000 0.67830  0.79800  0.72480  Biso   1.000  C
  C1292    1.0000 0.11970  0.32170  0.72480  Biso   1.000  C
  C1293    1.0000 0.20200  0.88030  0.72480  Biso   1.000  C
  C1294    1.0000 0.32170  0.20200  0.22480  Biso   1.000  C
  C1295    1.0000 0.88030  0.67830  0.22480  Biso   1.000  C
  C1296    1.0000 0.79800  0.11970  0.22480  Biso   1.000  C
  C1297    1.0000 0.20200  0.32170  0.72480  Biso   1.000  C
  C1298    1.0000 0.67830  0.88030  0.72480  Biso   1.000  C
  C1299    1.0000 0.11970  0.79800  0.72480  Biso   1.000  C
  C1300    1.0000 0.79800  0.67830  0.22480  Biso   1.000  C
  C1301    1.0000 0.32170  0.11970  0.22480  Biso   1.000  C
  C1302    1.0000 0.88030  0.20200  0.22480  Biso   1.000  C
  C1303    1.0000 0.32170  0.20200  0.27520  Biso   1.000  C
  C1304    1.0000 0.88030  0.67830  0.27520  Biso   1.000  C
  C1305    1.0000 0.79800  0.11970  0.27520  Biso   1.000  C
  C1306    1.0000 0.67830  0.79800  0.77520  Biso   1.000  C
  C1307    1.0000 0.11970  0.32170  0.77520  Biso   1.000  C
  C1308    1.0000 0.20200  0.88030  0.77520  Biso   1.000  C
  C1309    1.0000 0.77630  0.68020  0.29215  Biso   1.000  C
  C1310    1.0000 0.31980  0.09610  0.29215  Biso   1.000  C
  C1311    1.0000 0.90390  0.22370  0.29215  Biso   1.000  C
  C1312    1.0000 0.22370  0.31980  0.79215  Biso   1.000  C
  C1313    1.0000 0.68020  0.90390  0.79215  Biso   1.000  C
  C1314    1.0000 0.09610  0.77630  0.79215  Biso   1.000  C
  C1315    1.0000 0.68020  0.77630  0.70785  Biso   1.000  C
  C1316    1.0000 0.09610  0.31980  0.70785  Biso   1.000  C
  C1317    1.0000 0.22370  0.90390  0.70785  Biso   1.000  C
  C1318    1.0000 0.31980  0.22370  0.20785  Biso   1.000  C
  C1319    1.0000 0.90390  0.68020  0.20785  Biso   1.000  C
  C1320    1.0000 0.77630  0.09610  0.20785  Biso   1.000  C
  C1321    1.0000 0.22370  0.31980  0.70785  Biso   1.000  C
  C1322    1.0000 0.68020  0.90390  0.70785  Biso   1.000  C
  C1323    1.0000 0.09610  0.77630  0.70785  Biso   1.000  C
  C1324    1.0000 0.77630  0.68020  0.20785  Biso   1.000  C
  C1325    1.0000 0.31980  0.09610  0.20785  Biso   1.000  C
  C1326    1.0000 0.90390  0.22370  0.20785  Biso   1.000  C
  C1327    1.0000 0.31980  0.22370  0.29215  Biso   1.000  C
  C1328    1.0000 0.90390  0.68020  0.29215  Biso   1.000  C
  C1329    1.0000 0.77630  0.09610  0.29215  Biso   1.000  C
  C1330    1.0000 0.68020  0.77630  0.79215  Biso   1.000  C
  C1331    1.0000 0.09610  0.31980  0.79215  Biso   1.000  C
  C1332    1.0000 0.22370  0.90390  0.79215  Biso   1.000  C
  C1333    1.0000 0.79070  0.71760  0.30128  Biso   1.000  C
  C1334    1.0000 0.28240  0.07310  0.30128  Biso   1.000  C
  C1335    1.0000 0.92690  0.20930  0.30128  Biso   1.000  C
  C1336    1.0000 0.20930  0.28240  0.80128  Biso   1.000  C
  C1337    1.0000 0.71760  0.92690  0.80128  Biso   1.000  C
  C1338    1.0000 0.07310  0.79070  0.80128  Biso   1.000  C
  C1339    1.0000 0.71760  0.79070  0.69872  Biso   1.000  C
  C1340    1.0000 0.07310  0.28240  0.69872  Biso   1.000  C
  C1341    1.0000 0.20930  0.92690  0.69872  Biso   1.000  C
  C1342    1.0000 0.28240  0.20930  0.19872  Biso   1.000  C
  C1343    1.0000 0.92690  0.71760  0.19872  Biso   1.000  C
  C1344    1.0000 0.79070  0.07310  0.19872  Biso   1.000  C
  C1345    1.0000 0.20930  0.28240  0.69872  Biso   1.000  C
  C1346    1.0000 0.71760  0.92690  0.69872  Biso   1.000  C
  C1347    1.0000 0.07310  0.79070  0.69872  Biso   1.000  C
  C1348    1.0000 0.79070  0.71760  0.19872  Biso   1.000  C
  C1349    1.0000 0.28240  0.07310  0.19872  Biso   1.000  C
  C1350    1.0000 0.92690  0.20930  0.19872  Biso   1.000  C
  C1351    1.0000 0.28240  0.20930  0.30128  Biso   1.000  C
  C1352    1.0000 0.92690  0.71760  0.30128  Biso   1.000  C
  C1353    1.0000 0.79070  0.07310  0.30128  Biso   1.000  C
  C1354    1.0000 0.71760  0.79070  0.80128  Biso   1.000  C
  C1355    1.0000 0.07310  0.28240  0.80128  Biso   1.000  C
  C1356    1.0000 0.20930  0.92690  0.80128  Biso   1.000  C
  H625     1.0000 0.81400  0.74220  0.29690  Biso   1.000  H
  H626     1.0000 0.25780  0.07180  0.29690  Biso   1.000  H
  H627     1.0000 0.92820  0.18600  0.29690  Biso   1.000  H
  H628     1.0000 0.18600  0.25780  0.79690  Biso   1.000  H
  H629     1.0000 0.74220  0.92820  0.79690  Biso   1.000  H
  H630     1.0000 0.07180  0.81400  0.79690  Biso   1.000  H
  H631     1.0000 0.74220  0.81400  0.70310  Biso   1.000  H
  H632     1.0000 0.07180  0.25780  0.70310  Biso   1.000  H
  H633     1.0000 0.18600  0.92820  0.70310  Biso   1.000  H
  H634     1.0000 0.25780  0.18600  0.20310  Biso   1.000  H
  H635     1.0000 0.92820  0.74220  0.20310  Biso   1.000  H
  H636     1.0000 0.81400  0.07180  0.20310  Biso   1.000  H
  H637     1.0000 0.18600  0.25780  0.70310  Biso   1.000  H
  H638     1.0000 0.74220  0.92820  0.70310  Biso   1.000  H
  H639     1.0000 0.07180  0.81400  0.70310  Biso   1.000  H
  H640     1.0000 0.81400  0.74220  0.20310  Biso   1.000  H
  H641     1.0000 0.25780  0.07180  0.20310  Biso   1.000  H
  H642     1.0000 0.92820  0.18600  0.20310  Biso   1.000  H
  H643     1.0000 0.25780  0.18600  0.29690  Biso   1.000  H
  H644     1.0000 0.92820  0.74220  0.29690  Biso   1.000  H
  H645     1.0000 0.81400  0.07180  0.29690  Biso   1.000  H
  H646     1.0000 0.74220  0.81400  0.79690  Biso   1.000  H
  H647     1.0000 0.07180  0.25780  0.79690  Biso   1.000  H
  H648     1.0000 0.18600  0.92820  0.79690  Biso   1.000  H
  C1357    1.0000 0.77090  0.71890  0.31690  Biso   1.000  C
  C1358    1.0000 0.28110  0.05200  0.31690  Biso   1.000  C
  C1359    1.0000 0.94800  0.22910  0.31690  Biso   1.000  C
  C1360    1.0000 0.22910  0.28110  0.81690  Biso   1.000  C
  C1361    1.0000 0.71890  0.94800  0.81690  Biso   1.000  C
  C1362    1.0000 0.05200  0.77090  0.81690  Biso   1.000  C
  C1363    1.0000 0.71890  0.77090  0.68310  Biso   1.000  C
  C1364    1.0000 0.05200  0.28110  0.68310  Biso   1.000  C
  C1365    1.0000 0.22910  0.94800  0.68310  Biso   1.000  C
  C1366    1.0000 0.28110  0.22910  0.18310  Biso   1.000  C
  C1367    1.0000 0.94800  0.71890  0.18310  Biso   1.000  C
  C1368    1.0000 0.77090  0.05200  0.18310  Biso   1.000  C
  C1369    1.0000 0.22910  0.28110  0.68310  Biso   1.000  C
  C1370    1.0000 0.71890  0.94800  0.68310  Biso   1.000  C
  C1371    1.0000 0.05200  0.77090  0.68310  Biso   1.000  C
  C1372    1.0000 0.77090  0.71890  0.18310  Biso   1.000  C
  C1373    1.0000 0.28110  0.05200  0.18310  Biso   1.000  C
  C1374    1.0000 0.94800  0.22910  0.18310  Biso   1.000  C
  C1375    1.0000 0.28110  0.22910  0.31690  Biso   1.000  C
  C1376    1.0000 0.94800  0.71890  0.31690  Biso   1.000  C
  C1377    1.0000 0.77090  0.05200  0.31690  Biso   1.000  C
  C1378    1.0000 0.71890  0.77090  0.81690  Biso   1.000  C
  C1379    1.0000 0.05200  0.28110  0.81690  Biso   1.000  C
  C1380    1.0000 0.22910  0.94800  0.81690  Biso   1.000  C
  H649     1.0000 0.78070  0.74450  0.32310  Biso   1.000  H
  H650     1.0000 0.25550  0.03620  0.32310  Biso   1.000  H
  H651     1.0000 0.96380  0.21930  0.32310  Biso   1.000  H
  H652     1.0000 0.21930  0.25550  0.82310  Biso   1.000  H
  H653     1.0000 0.74450  0.96380  0.82310  Biso   1.000  H
  H654     1.0000 0.03620  0.78070  0.82310  Biso   1.000  H
  H655     1.0000 0.74450  0.78070  0.67690  Biso   1.000  H
  H656     1.0000 0.03620  0.25550  0.67690  Biso   1.000  H
  H657     1.0000 0.21930  0.96380  0.67690  Biso   1.000  H
  H658     1.0000 0.25550  0.21930  0.17690  Biso   1.000  H
  H659     1.0000 0.96380  0.74450  0.17690  Biso   1.000  H
  H660     1.0000 0.78070  0.03620  0.17690  Biso   1.000  H
  H661     1.0000 0.21930  0.25550  0.67690  Biso   1.000  H
  H662     1.0000 0.74450  0.96380  0.67690  Biso   1.000  H
  H663     1.0000 0.03620  0.78070  0.67690  Biso   1.000  H
  H664     1.0000 0.78070  0.74450  0.17690  Biso   1.000  H
  H665     1.0000 0.25550  0.03620  0.17690  Biso   1.000  H
  H666     1.0000 0.96380  0.21930  0.17690  Biso   1.000  H
  H667     1.0000 0.25550  0.21930  0.32310  Biso   1.000  H
  H668     1.0000 0.96380  0.74450  0.32310  Biso   1.000  H
  H669     1.0000 0.78070  0.03620  0.32310  Biso   1.000  H
  H670     1.0000 0.74450  0.78070  0.82310  Biso   1.000  H
  H671     1.0000 0.03620  0.25550  0.82310  Biso   1.000  H
  H672     1.0000 0.21930  0.96380  0.82310  Biso   1.000  H
  C1381    1.0000 0.73680  0.68290  0.32338  Biso   1.000  C
  C1382    1.0000 0.31710  0.05390  0.32338  Biso   1.000  C
  C1383    1.0000 0.94610  0.26320  0.32338  Biso   1.000  C
  C1384    1.0000 0.26320  0.31710  0.82338  Biso   1.000  C
  C1385    1.0000 0.68290  0.94610  0.82338  Biso   1.000  C
  C1386    1.0000 0.05390  0.73680  0.82338  Biso   1.000  C
  C1387    1.0000 0.68290  0.73680  0.67662  Biso   1.000  C
  C1388    1.0000 0.05390  0.31710  0.67662  Biso   1.000  C
  C1389    1.0000 0.26320  0.94610  0.67662  Biso   1.000  C
  C1390    1.0000 0.31710  0.26320  0.17662  Biso   1.000  C
  C1391    1.0000 0.94610  0.68290  0.17662  Biso   1.000  C
  C1392    1.0000 0.73680  0.05390  0.17662  Biso   1.000  C
  C1393    1.0000 0.26320  0.31710  0.67662  Biso   1.000  C
  C1394    1.0000 0.68290  0.94610  0.67662  Biso   1.000  C
  C1395    1.0000 0.05390  0.73680  0.67662  Biso   1.000  C
  C1396    1.0000 0.73680  0.68290  0.17662  Biso   1.000  C
  C1397    1.0000 0.31710  0.05390  0.17662  Biso   1.000  C
  C1398    1.0000 0.94610  0.26320  0.17662  Biso   1.000  C
  C1399    1.0000 0.31710  0.26320  0.32338  Biso   1.000  C
  C1400    1.0000 0.94610  0.68290  0.32338  Biso   1.000  C
  C1401    1.0000 0.73680  0.05390  0.32338  Biso   1.000  C
  C1402    1.0000 0.68290  0.73680  0.82338  Biso   1.000  C
  C1403    1.0000 0.05390  0.31710  0.82338  Biso   1.000  C
  C1404    1.0000 0.26320  0.94610  0.82338  Biso   1.000  C
  C1405    1.0000 0.72240  0.64560  0.31425  Biso   1.000  C
  C1406    1.0000 0.35440  0.07680  0.31425  Biso   1.000  C
  C1407    1.0000 0.92320  0.27760  0.31425  Biso   1.000  C
  C1408    1.0000 0.27760  0.35440  0.81425  Biso   1.000  C
  C1409    1.0000 0.64560  0.92320  0.81425  Biso   1.000  C
  C1410    1.0000 0.07680  0.72240  0.81425  Biso   1.000  C
  C1411    1.0000 0.64560  0.72240  0.68575  Biso   1.000  C
  C1412    1.0000 0.07680  0.35440  0.68575  Biso   1.000  C
  C1413    1.0000 0.27760  0.92320  0.68575  Biso   1.000  C
  C1414    1.0000 0.35440  0.27760  0.18575  Biso   1.000  C
  C1415    1.0000 0.92320  0.64560  0.18575  Biso   1.000  C
  C1416    1.0000 0.72240  0.07680  0.18575  Biso   1.000  C
  C1417    1.0000 0.27760  0.35440  0.68575  Biso   1.000  C
  C1418    1.0000 0.64560  0.92320  0.68575  Biso   1.000  C
  C1419    1.0000 0.07680  0.72240  0.68575  Biso   1.000  C
  C1420    1.0000 0.72240  0.64560  0.18575  Biso   1.000  C
  C1421    1.0000 0.35440  0.07680  0.18575  Biso   1.000  C
  C1422    1.0000 0.92320  0.27760  0.18575  Biso   1.000  C
  C1423    1.0000 0.35440  0.27760  0.31425  Biso   1.000  C
  C1424    1.0000 0.92320  0.64560  0.31425  Biso   1.000  C
  C1425    1.0000 0.72240  0.07680  0.31425  Biso   1.000  C
  C1426    1.0000 0.64560  0.72240  0.81425  Biso   1.000  C
  C1427    1.0000 0.07680  0.35440  0.81425  Biso   1.000  C
  C1428    1.0000 0.27760  0.92320  0.81425  Biso   1.000  C
  H673     1.0000 0.69910  0.62100  0.31870  Biso   1.000  H
  H674     1.0000 0.37900  0.07810  0.31870  Biso   1.000  H
  H675     1.0000 0.92190  0.30090  0.31870  Biso   1.000  H
  H676     1.0000 0.30090  0.37900  0.81870  Biso   1.000  H
  H677     1.0000 0.62100  0.92190  0.81870  Biso   1.000  H
  H678     1.0000 0.07810  0.69910  0.81870  Biso   1.000  H
  H679     1.0000 0.62100  0.69910  0.68130  Biso   1.000  H
  H680     1.0000 0.07810  0.37900  0.68130  Biso   1.000  H
  H681     1.0000 0.30090  0.92190  0.68130  Biso   1.000  H
  H682     1.0000 0.37900  0.30090  0.18130  Biso   1.000  H
  H683     1.0000 0.92190  0.62100  0.18130  Biso   1.000  H
  H684     1.0000 0.69910  0.07810  0.18130  Biso   1.000  H
  H685     1.0000 0.30090  0.37900  0.68130  Biso   1.000  H
  H686     1.0000 0.62100  0.92190  0.68130  Biso   1.000  H
  H687     1.0000 0.07810  0.69910  0.68130  Biso   1.000  H
  H688     1.0000 0.69910  0.62100  0.18130  Biso   1.000  H
  H689     1.0000 0.37900  0.07810  0.18130  Biso   1.000  H
  H690     1.0000 0.92190  0.30090  0.18130  Biso   1.000  H
  H691     1.0000 0.37900  0.30090  0.31870  Biso   1.000  H
  H692     1.0000 0.92190  0.62100  0.31870  Biso   1.000  H
  H693     1.0000 0.69910  0.07810  0.31870  Biso   1.000  H
  H694     1.0000 0.62100  0.69910  0.81870  Biso   1.000  H
  H695     1.0000 0.07810  0.37900  0.81870  Biso   1.000  H
  H696     1.0000 0.30090  0.92190  0.81870  Biso   1.000  H
  C1429    1.0000 0.74220  0.64420  0.29863  Biso   1.000  C
  C1430    1.0000 0.35580  0.09800  0.29863  Biso   1.000  C
  C1431    1.0000 0.90200  0.25780  0.29863  Biso   1.000  C
  C1432    1.0000 0.25780  0.35580  0.79863  Biso   1.000  C
  C1433    1.0000 0.64420  0.90200  0.79863  Biso   1.000  C
  C1434    1.0000 0.09800  0.74220  0.79863  Biso   1.000  C
  C1435    1.0000 0.64420  0.74220  0.70137  Biso   1.000  C
  C1436    1.0000 0.09800  0.35580  0.70137  Biso   1.000  C
  C1437    1.0000 0.25780  0.90200  0.70137  Biso   1.000  C
  C1438    1.0000 0.35580  0.25780  0.20137  Biso   1.000  C
  C1439    1.0000 0.90200  0.64420  0.20137  Biso   1.000  C
  C1440    1.0000 0.74220  0.09800  0.20137  Biso   1.000  C
  C1441    1.0000 0.25780  0.35580  0.70137  Biso   1.000  C
  C1442    1.0000 0.64420  0.90200  0.70137  Biso   1.000  C
  C1443    1.0000 0.09800  0.74220  0.70137  Biso   1.000  C
  C1444    1.0000 0.74220  0.64420  0.20137  Biso   1.000  C
  C1445    1.0000 0.35580  0.09800  0.20137  Biso   1.000  C
  C1446    1.0000 0.90200  0.25780  0.20137  Biso   1.000  C
  C1447    1.0000 0.35580  0.25780  0.29863  Biso   1.000  C
  C1448    1.0000 0.90200  0.64420  0.29863  Biso   1.000  C
  C1449    1.0000 0.74220  0.09800  0.29863  Biso   1.000  C
  C1450    1.0000 0.64420  0.74220  0.79863  Biso   1.000  C
  C1451    1.0000 0.09800  0.35580  0.79863  Biso   1.000  C
  C1452    1.0000 0.25780  0.90200  0.79863  Biso   1.000  C
  H697     1.0000 0.73250  0.61870  0.29240  Biso   1.000  H
  H698     1.0000 0.38130  0.11380  0.29240  Biso   1.000  H
  H699     1.0000 0.88620  0.26750  0.29240  Biso   1.000  H
  H700     1.0000 0.26750  0.38130  0.79240  Biso   1.000  H
  H701     1.0000 0.61870  0.88620  0.79240  Biso   1.000  H
  H702     1.0000 0.11380  0.73250  0.79240  Biso   1.000  H
  H703     1.0000 0.61870  0.73250  0.70760  Biso   1.000  H
  H704     1.0000 0.11380  0.38130  0.70760  Biso   1.000  H
  H705     1.0000 0.26750  0.88620  0.70760  Biso   1.000  H
  H706     1.0000 0.38130  0.26750  0.20760  Biso   1.000  H
  H707     1.0000 0.88620  0.61870  0.20760  Biso   1.000  H
  H708     1.0000 0.73250  0.11380  0.20760  Biso   1.000  H
  H709     1.0000 0.26750  0.38130  0.70760  Biso   1.000  H
  H710     1.0000 0.61870  0.88620  0.70760  Biso   1.000  H
  H711     1.0000 0.11380  0.73250  0.70760  Biso   1.000  H
  H712     1.0000 0.73250  0.61870  0.20760  Biso   1.000  H
  H713     1.0000 0.38130  0.11380  0.20760  Biso   1.000  H
  H714     1.0000 0.88620  0.26750  0.20760  Biso   1.000  H
  H715     1.0000 0.38130  0.26750  0.29240  Biso   1.000  H
  H716     1.0000 0.88620  0.61870  0.29240  Biso   1.000  H
  H717     1.0000 0.73250  0.11380  0.29240  Biso   1.000  H
  H718     1.0000 0.61870  0.73250  0.79240  Biso   1.000  H
  H719     1.0000 0.11380  0.38130  0.79240  Biso   1.000  H
  H720     1.0000 0.26750  0.88620  0.79240  Biso   1.000  H
  C1453    1.0000 0.62720  0.54020  0.40202  Biso   1.000  C
  C1454    1.0000 0.45980  0.08700  0.40202  Biso   1.000  C
  C1455    1.0000 0.91300  0.37280  0.40202  Biso   1.000  C
  C1456    1.0000 0.37280  0.45980  0.90202  Biso   1.000  C
  C1457    1.0000 0.54020  0.91300  0.90202  Biso   1.000  C
  C1458    1.0000 0.08700  0.62720  0.90202  Biso   1.000  C
  C1459    1.0000 0.54020  0.62720  0.59798  Biso   1.000  C
  C1460    1.0000 0.08700  0.45980  0.59798  Biso   1.000  C
  C1461    1.0000 0.37280  0.91300  0.59798  Biso   1.000  C
  C1462    1.0000 0.45980  0.37280  0.09798  Biso   1.000  C
  C1463    1.0000 0.91300  0.54020  0.09798  Biso   1.000  C
  C1464    1.0000 0.62720  0.08700  0.09798  Biso   1.000  C
  C1465    1.0000 0.37280  0.45980  0.59798  Biso   1.000  C
  C1466    1.0000 0.54020  0.91300  0.59798  Biso   1.000  C
  C1467    1.0000 0.08700  0.62720  0.59798  Biso   1.000  C
  C1468    1.0000 0.62720  0.54020  0.09798  Biso   1.000  C
  C1469    1.0000 0.45980  0.08700  0.09798  Biso   1.000  C
  C1470    1.0000 0.91300  0.37280  0.09798  Biso   1.000  C
  C1471    1.0000 0.45980  0.37280  0.40202  Biso   1.000  C
  C1472    1.0000 0.91300  0.54020  0.40202  Biso   1.000  C
  C1473    1.0000 0.62720  0.08700  0.40202  Biso   1.000  C
  C1474    1.0000 0.54020  0.62720  0.90202  Biso   1.000  C
  C1475    1.0000 0.08700  0.45980  0.90202  Biso   1.000  C
  C1476    1.0000 0.37280  0.91300  0.90202  Biso   1.000  C
  C1477    1.0000 0.61560  0.57020  0.40448  Biso   1.000  C
  C1478    1.0000 0.42980  0.04540  0.40448  Biso   1.000  C
  C1479    1.0000 0.95460  0.38440  0.40448  Biso   1.000  C
  C1480    1.0000 0.38440  0.42980  0.90448  Biso   1.000  C
  C1481    1.0000 0.57020  0.95460  0.90448  Biso   1.000  C
  C1482    1.0000 0.04540  0.61560  0.90448  Biso   1.000  C
  C1483    1.0000 0.57020  0.61560  0.59552  Biso   1.000  C
  C1484    1.0000 0.04540  0.42980  0.59552  Biso   1.000  C
  C1485    1.0000 0.38440  0.95460  0.59552  Biso   1.000  C
  C1486    1.0000 0.42980  0.38440  0.09552  Biso   1.000  C
  C1487    1.0000 0.95460  0.57020  0.09552  Biso   1.000  C
  C1488    1.0000 0.61560  0.04540  0.09552  Biso   1.000  C
  C1489    1.0000 0.38440  0.42980  0.59552  Biso   1.000  C
  C1490    1.0000 0.57020  0.95460  0.59552  Biso   1.000  C
  C1491    1.0000 0.04540  0.61560  0.59552  Biso   1.000  C
  C1492    1.0000 0.61560  0.57020  0.09552  Biso   1.000  C
  C1493    1.0000 0.42980  0.04540  0.09552  Biso   1.000  C
  C1494    1.0000 0.95460  0.38440  0.09552  Biso   1.000  C
  C1495    1.0000 0.42980  0.38440  0.40448  Biso   1.000  C
  C1496    1.0000 0.95460  0.57020  0.40448  Biso   1.000  C
  C1497    1.0000 0.61560  0.04540  0.40448  Biso   1.000  C
  C1498    1.0000 0.57020  0.61560  0.90448  Biso   1.000  C
  C1499    1.0000 0.04540  0.42980  0.90448  Biso   1.000  C
  C1500    1.0000 0.38440  0.95460  0.90448  Biso   1.000  C
  H721     1.0000 0.59560  0.56630  0.41340  Biso   1.000  H
  H722     1.0000 0.43370  0.02930  0.41340  Biso   1.000  H
  H723     1.0000 0.97070  0.40440  0.41340  Biso   1.000  H
  H724     1.0000 0.40440  0.43370  0.91340  Biso   1.000  H
  H725     1.0000 0.56630  0.97070  0.91340  Biso   1.000  H
  H726     1.0000 0.02930  0.59560  0.91340  Biso   1.000  H
  H727     1.0000 0.56630  0.59560  0.58660  Biso   1.000  H
  H728     1.0000 0.02930  0.43370  0.58660  Biso   1.000  H
  H729     1.0000 0.40440  0.97070  0.58660  Biso   1.000  H
  H730     1.0000 0.43370  0.40440  0.08660  Biso   1.000  H
  H731     1.0000 0.97070  0.56630  0.08660  Biso   1.000  H
  H732     1.0000 0.59560  0.02930  0.08660  Biso   1.000  H
  H733     1.0000 0.40440  0.43370  0.58660  Biso   1.000  H
  H734     1.0000 0.56630  0.97070  0.58660  Biso   1.000  H
  H735     1.0000 0.02930  0.59560  0.58660  Biso   1.000  H
  H736     1.0000 0.59560  0.56630  0.08660  Biso   1.000  H
  H737     1.0000 0.43370  0.02930  0.08660  Biso   1.000  H
  H738     1.0000 0.97070  0.40440  0.08660  Biso   1.000  H
  H739     1.0000 0.43370  0.40440  0.41340  Biso   1.000  H
  H740     1.0000 0.97070  0.56630  0.41340  Biso   1.000  H
  H741     1.0000 0.59560  0.02930  0.41340  Biso   1.000  H
  H742     1.0000 0.56630  0.59560  0.91340  Biso   1.000  H
  H743     1.0000 0.02930  0.43370  0.91340  Biso   1.000  H
  H744     1.0000 0.40440  0.97070  0.91340  Biso   1.000  H
  C1501    1.0000 0.63330  0.60580  0.39394  Biso   1.000  C
  C1502    1.0000 0.39420  0.02750  0.39394  Biso   1.000  C
  C1503    1.0000 0.97250  0.36670  0.39394  Biso   1.000  C
  C1504    1.0000 0.36670  0.39420  0.89394  Biso   1.000  C
  C1505    1.0000 0.60580  0.97250  0.89394  Biso   1.000  C
  C1506    1.0000 0.02750  0.63330  0.89394  Biso   1.000  C
  C1507    1.0000 0.60580  0.63330  0.60606  Biso   1.000  C
  C1508    1.0000 0.02750  0.39420  0.60606  Biso   1.000  C
  C1509    1.0000 0.36670  0.97250  0.60606  Biso   1.000  C
  C1510    1.0000 0.39420  0.36670  0.10606  Biso   1.000  C
  C1511    1.0000 0.97250  0.60580  0.10606  Biso   1.000  C
  C1512    1.0000 0.63330  0.02750  0.10606  Biso   1.000  C
  C1513    1.0000 0.36670  0.39420  0.60606  Biso   1.000  C
  C1514    1.0000 0.60580  0.97250  0.60606  Biso   1.000  C
  C1515    1.0000 0.02750  0.63330  0.60606  Biso   1.000  C
  C1516    1.0000 0.63330  0.60580  0.10606  Biso   1.000  C
  C1517    1.0000 0.39420  0.02750  0.10606  Biso   1.000  C
  C1518    1.0000 0.97250  0.36670  0.10606  Biso   1.000  C
  C1519    1.0000 0.39420  0.36670  0.39394  Biso   1.000  C
  C1520    1.0000 0.97250  0.60580  0.39394  Biso   1.000  C
  C1521    1.0000 0.63330  0.02750  0.39394  Biso   1.000  C
  C1522    1.0000 0.60580  0.63330  0.89394  Biso   1.000  C
  C1523    1.0000 0.02750  0.39420  0.89394  Biso   1.000  C
  C1524    1.0000 0.36670  0.97250  0.89394  Biso   1.000  C
  H745     1.0000 0.62540  0.62630  0.39560  Biso   1.000  H
  H746     1.0000 0.37370  0.99910  0.39560  Biso   1.000  H
  H747     1.0000 0.00090  0.37460  0.39560  Biso   1.000  H
  H748     1.0000 0.37460  0.37370  0.89560  Biso   1.000  H
  H749     1.0000 0.62630  0.00090  0.89560  Biso   1.000  H
  H750     1.0000 0.99910  0.62540  0.89560  Biso   1.000  H
  H751     1.0000 0.62630  0.62540  0.60440  Biso   1.000  H
  H752     1.0000 0.99910  0.37370  0.60440  Biso   1.000  H
  H753     1.0000 0.37460  0.00090  0.60440  Biso   1.000  H
  H754     1.0000 0.37370  0.37460  0.10440  Biso   1.000  H
  H755     1.0000 0.00090  0.62630  0.10440  Biso   1.000  H
  H756     1.0000 0.62540  0.99910  0.10440  Biso   1.000  H
  H757     1.0000 0.37460  0.37370  0.60440  Biso   1.000  H
  H758     1.0000 0.62630  0.00090  0.60440  Biso   1.000  H
  H759     1.0000 0.99910  0.62540  0.60440  Biso   1.000  H
  H760     1.0000 0.62540  0.62630  0.10440  Biso   1.000  H
  H761     1.0000 0.37370  0.99910  0.10440  Biso   1.000  H
  H762     1.0000 0.00090  0.37460  0.10440  Biso   1.000  H
  H763     1.0000 0.37370  0.37460  0.39560  Biso   1.000  H
  H764     1.0000 0.00090  0.62630  0.39560  Biso   1.000  H
  H765     1.0000 0.62540  0.99910  0.39560  Biso   1.000  H
  H766     1.0000 0.62630  0.62540  0.89560  Biso   1.000  H
  H767     1.0000 0.99910  0.37370  0.89560  Biso   1.000  H
  H768     1.0000 0.37460  0.00090  0.89560  Biso   1.000  H
  C1525    1.0000 0.66250  0.61160  0.38092  Biso   1.000  C
  C1526    1.0000 0.38840  0.05090  0.38092  Biso   1.000  C
  C1527    1.0000 0.94910  0.33750  0.38092  Biso   1.000  C
  C1528    1.0000 0.33750  0.38840  0.88092  Biso   1.000  C
  C1529    1.0000 0.61160  0.94910  0.88092  Biso   1.000  C
  C1530    1.0000 0.05090  0.66250  0.88092  Biso   1.000  C
  C1531    1.0000 0.61160  0.66250  0.61908  Biso   1.000  C
  C1532    1.0000 0.05090  0.38840  0.61908  Biso   1.000  C
  C1533    1.0000 0.33750  0.94910  0.61908  Biso   1.000  C
  C1534    1.0000 0.38840  0.33750  0.11908  Biso   1.000  C
  C1535    1.0000 0.94910  0.61160  0.11908  Biso   1.000  C
  C1536    1.0000 0.66250  0.05090  0.11908  Biso   1.000  C
  C1537    1.0000 0.33750  0.38840  0.61908  Biso   1.000  C
  C1538    1.0000 0.61160  0.94910  0.61908  Biso   1.000  C
  C1539    1.0000 0.05090  0.66250  0.61908  Biso   1.000  C
  C1540    1.0000 0.66250  0.61160  0.11908  Biso   1.000  C
  C1541    1.0000 0.38840  0.05090  0.11908  Biso   1.000  C
  C1542    1.0000 0.94910  0.33750  0.11908  Biso   1.000  C
  C1543    1.0000 0.38840  0.33750  0.38092  Biso   1.000  C
  C1544    1.0000 0.94910  0.61160  0.38092  Biso   1.000  C
  C1545    1.0000 0.66250  0.05090  0.38092  Biso   1.000  C
  C1546    1.0000 0.61160  0.66250  0.88092  Biso   1.000  C
  C1547    1.0000 0.05090  0.38840  0.88092  Biso   1.000  C
  C1548    1.0000 0.33750  0.94910  0.88092  Biso   1.000  C
  C1549    1.0000 0.67410  0.58160  0.37846  Biso   1.000  C
  C1550    1.0000 0.41840  0.09250  0.37846  Biso   1.000  C
  C1551    1.0000 0.90750  0.32590  0.37846  Biso   1.000  C
  C1552    1.0000 0.32590  0.41840  0.87846  Biso   1.000  C
  C1553    1.0000 0.58160  0.90750  0.87846  Biso   1.000  C
  C1554    1.0000 0.09250  0.67410  0.87846  Biso   1.000  C
  C1555    1.0000 0.58160  0.67410  0.62154  Biso   1.000  C
  C1556    1.0000 0.09250  0.41840  0.62154  Biso   1.000  C
  C1557    1.0000 0.32590  0.90750  0.62154  Biso   1.000  C
  C1558    1.0000 0.41840  0.32590  0.12154  Biso   1.000  C
  C1559    1.0000 0.90750  0.58160  0.12154  Biso   1.000  C
  C1560    1.0000 0.67410  0.09250  0.12154  Biso   1.000  C
  C1561    1.0000 0.32590  0.41840  0.62154  Biso   1.000  C
  C1562    1.0000 0.58160  0.90750  0.62154  Biso   1.000  C
  C1563    1.0000 0.09250  0.67410  0.62154  Biso   1.000  C
  C1564    1.0000 0.67410  0.58160  0.12154  Biso   1.000  C
  C1565    1.0000 0.41840  0.09250  0.12154  Biso   1.000  C
  C1566    1.0000 0.90750  0.32590  0.12154  Biso   1.000  C
  C1567    1.0000 0.41840  0.32590  0.37846  Biso   1.000  C
  C1568    1.0000 0.90750  0.58160  0.37846  Biso   1.000  C
  C1569    1.0000 0.67410  0.09250  0.37846  Biso   1.000  C
  C1570    1.0000 0.58160  0.67410  0.87846  Biso   1.000  C
  C1571    1.0000 0.09250  0.41840  0.87846  Biso   1.000  C
  C1572    1.0000 0.32590  0.90750  0.87846  Biso   1.000  C
  H769     1.0000 0.69400  0.58550  0.36960  Biso   1.000  H
  H770     1.0000 0.41450  0.10850  0.36960  Biso   1.000  H
  H771     1.0000 0.89150  0.30600  0.36960  Biso   1.000  H
  H772     1.0000 0.30600  0.41450  0.86960  Biso   1.000  H
  H773     1.0000 0.58550  0.89150  0.86960  Biso   1.000  H
  H774     1.0000 0.10850  0.69400  0.86960  Biso   1.000  H
  H775     1.0000 0.58550  0.69400  0.63040  Biso   1.000  H
  H776     1.0000 0.10850  0.41450  0.63040  Biso   1.000  H
  H777     1.0000 0.30600  0.89150  0.63040  Biso   1.000  H
  H778     1.0000 0.41450  0.30600  0.13040  Biso   1.000  H
  H779     1.0000 0.89150  0.58550  0.13040  Biso   1.000  H
  H780     1.0000 0.69400  0.10850  0.13040  Biso   1.000  H
  H781     1.0000 0.30600  0.41450  0.63040  Biso   1.000  H
  H782     1.0000 0.58550  0.89150  0.63040  Biso   1.000  H
  H783     1.0000 0.10850  0.69400  0.63040  Biso   1.000  H
  H784     1.0000 0.69400  0.58550  0.13040  Biso   1.000  H
  H785     1.0000 0.41450  0.10850  0.13040  Biso   1.000  H
  H786     1.0000 0.89150  0.30600  0.13040  Biso   1.000  H
  H787     1.0000 0.41450  0.30600  0.36960  Biso   1.000  H
  H788     1.0000 0.89150  0.58550  0.36960  Biso   1.000  H
  H789     1.0000 0.69400  0.10850  0.36960  Biso   1.000  H
  H790     1.0000 0.58550  0.69400  0.86960  Biso   1.000  H
  H791     1.0000 0.10850  0.41450  0.86960  Biso   1.000  H
  H792     1.0000 0.30600  0.89150  0.86960  Biso   1.000  H
  C1573    1.0000 0.65640  0.54600  0.38900  Biso   1.000  C
  C1574    1.0000 0.45400  0.11040  0.38900  Biso   1.000  C
  C1575    1.0000 0.88960  0.34360  0.38900  Biso   1.000  C
  C1576    1.0000 0.34360  0.45400  0.88900  Biso   1.000  C
  C1577    1.0000 0.54600  0.88960  0.88900  Biso   1.000  C
  C1578    1.0000 0.11040  0.65640  0.88900  Biso   1.000  C
  C1579    1.0000 0.54600  0.65640  0.61100  Biso   1.000  C
  C1580    1.0000 0.11040  0.45400  0.61100  Biso   1.000  C
  C1581    1.0000 0.34360  0.88960  0.61100  Biso   1.000  C
  C1582    1.0000 0.45400  0.34360  0.11100  Biso   1.000  C
  C1583    1.0000 0.88960  0.54600  0.11100  Biso   1.000  C
  C1584    1.0000 0.65640  0.11040  0.11100  Biso   1.000  C
  C1585    1.0000 0.34360  0.45400  0.61100  Biso   1.000  C
  C1586    1.0000 0.54600  0.88960  0.61100  Biso   1.000  C
  C1587    1.0000 0.11040  0.65640  0.61100  Biso   1.000  C
  C1588    1.0000 0.65640  0.54600  0.11100  Biso   1.000  C
  C1589    1.0000 0.45400  0.11040  0.11100  Biso   1.000  C
  C1590    1.0000 0.88960  0.34360  0.11100  Biso   1.000  C
  C1591    1.0000 0.45400  0.34360  0.38900  Biso   1.000  C
  C1592    1.0000 0.88960  0.54600  0.38900  Biso   1.000  C
  C1593    1.0000 0.65640  0.11040  0.38900  Biso   1.000  C
  C1594    1.0000 0.54600  0.65640  0.88900  Biso   1.000  C
  C1595    1.0000 0.11040  0.45400  0.88900  Biso   1.000  C
  C1596    1.0000 0.34360  0.88960  0.88900  Biso   1.000  C
  H793     1.0000 0.66430  0.52550  0.38730  Biso   1.000  H
  H794     1.0000 0.47450  0.13880  0.38730  Biso   1.000  H
  H795     1.0000 0.86120  0.33570  0.38730  Biso   1.000  H
  H796     1.0000 0.33570  0.47450  0.88730  Biso   1.000  H
  H797     1.0000 0.52550  0.86120  0.88730  Biso   1.000  H
  H798     1.0000 0.13880  0.66430  0.88730  Biso   1.000  H
  H799     1.0000 0.52550  0.66430  0.61270  Biso   1.000  H
  H800     1.0000 0.13880  0.47450  0.61270  Biso   1.000  H
  H801     1.0000 0.33570  0.86120  0.61270  Biso   1.000  H
  H802     1.0000 0.47450  0.33570  0.11270  Biso   1.000  H
  H803     1.0000 0.86120  0.52550  0.11270  Biso   1.000  H
  H804     1.0000 0.66430  0.13880  0.11270  Biso   1.000  H
  H805     1.0000 0.33570  0.47450  0.61270  Biso   1.000  H
  H806     1.0000 0.52550  0.86120  0.61270  Biso   1.000  H
  H807     1.0000 0.13880  0.66430  0.61270  Biso   1.000  H
  H808     1.0000 0.66430  0.52550  0.11270  Biso   1.000  H
  H809     1.0000 0.47450  0.13880  0.11270  Biso   1.000  H
  H810     1.0000 0.86120  0.33570  0.11270  Biso   1.000  H
  H811     1.0000 0.47450  0.33570  0.38730  Biso   1.000  H
  H812     1.0000 0.86120  0.52550  0.38730  Biso   1.000  H
  H813     1.0000 0.66430  0.13880  0.38730  Biso   1.000  H
  H814     1.0000 0.52550  0.66430  0.88730  Biso   1.000  H
  H815     1.0000 0.13880  0.47450  0.88730  Biso   1.000  H
  H816     1.0000 0.33570  0.86120  0.88730  Biso   1.000  H
  C1597    1.0000 0.59920  0.50090  0.41250  Biso   1.000  C
  C1598    1.0000 0.49910  0.09830  0.41250  Biso   1.000  C
  C1599    1.0000 0.90170  0.40080  0.41250  Biso   1.000  C
  C1600    1.0000 0.40080  0.49910  0.91250  Biso   1.000  C
  C1601    1.0000 0.50090  0.90170  0.91250  Biso   1.000  C
  C1602    1.0000 0.09830  0.59920  0.91250  Biso   1.000  C
  C1603    1.0000 0.50090  0.59920  0.58750  Biso   1.000  C
  C1604    1.0000 0.09830  0.49910  0.58750  Biso   1.000  C
  C1605    1.0000 0.40080  0.90170  0.58750  Biso   1.000  C
  C1606    1.0000 0.49910  0.40080  0.08750  Biso   1.000  C
  C1607    1.0000 0.90170  0.50090  0.08750  Biso   1.000  C
  C1608    1.0000 0.59920  0.09830  0.08750  Biso   1.000  C
  C1609    1.0000 0.40080  0.49910  0.58750  Biso   1.000  C
  C1610    1.0000 0.50090  0.90170  0.58750  Biso   1.000  C
  C1611    1.0000 0.09830  0.59920  0.58750  Biso   1.000  C
  C1612    1.0000 0.59920  0.50090  0.08750  Biso   1.000  C
  C1613    1.0000 0.49910  0.09830  0.08750  Biso   1.000  C
  C1614    1.0000 0.90170  0.40080  0.08750  Biso   1.000  C
  C1615    1.0000 0.49910  0.40080  0.41250  Biso   1.000  C
  C1616    1.0000 0.90170  0.50090  0.41250  Biso   1.000  C
  C1617    1.0000 0.59920  0.09830  0.41250  Biso   1.000  C
  C1618    1.0000 0.50090  0.59920  0.91250  Biso   1.000  C
  C1619    1.0000 0.09830  0.49910  0.91250  Biso   1.000  C
  C1620    1.0000 0.40080  0.90170  0.91250  Biso   1.000  C
  C1621    1.0000 0.49650  0.66640  0.53720  Biso   1.000  C
  C1622    1.0000 0.33360  0.83010  0.53720  Biso   1.000  C
  C1623    1.0000 0.16990  0.50350  0.53720  Biso   1.000  C
  C1624    1.0000 0.50350  0.33360  0.03720  Biso   1.000  C
  C1625    1.0000 0.66640  0.16990  0.03720  Biso   1.000  C
  C1626    1.0000 0.83010  0.49650  0.03720  Biso   1.000  C
  C1627    1.0000 0.66640  0.49650  0.46280  Biso   1.000  C
  C1628    1.0000 0.83010  0.33360  0.46280  Biso   1.000  C
  C1629    1.0000 0.50350  0.16990  0.46280  Biso   1.000  C
  C1630    1.0000 0.33360  0.50350  0.96280  Biso   1.000  C
  C1631    1.0000 0.16990  0.66640  0.96280  Biso   1.000  C
  C1632    1.0000 0.49650  0.83010  0.96280  Biso   1.000  C
  C1633    1.0000 0.50350  0.33360  0.46280  Biso   1.000  C
  C1634    1.0000 0.66640  0.16990  0.46280  Biso   1.000  C
  C1635    1.0000 0.83010  0.49650  0.46280  Biso   1.000  C
  C1636    1.0000 0.49650  0.66640  0.96280  Biso   1.000  C
  C1637    1.0000 0.33360  0.83010  0.96280  Biso   1.000  C
  C1638    1.0000 0.16990  0.50350  0.96280  Biso   1.000  C
  C1639    1.0000 0.33360  0.50350  0.53720  Biso   1.000  C
  C1640    1.0000 0.16990  0.66640  0.53720  Biso   1.000  C
  C1641    1.0000 0.49650  0.83010  0.53720  Biso   1.000  C
  C1642    1.0000 0.66640  0.49650  0.03720  Biso   1.000  C
  C1643    1.0000 0.83010  0.33360  0.03720  Biso   1.000  C
  C1644    1.0000 0.50350  0.16990  0.03720  Biso   1.000  C
  C1645    1.0000 0.49080  0.69970  0.54140  Biso   1.000  C
  C1646    1.0000 0.30030  0.79110  0.54140  Biso   1.000  C
  C1647    1.0000 0.20890  0.50920  0.54140  Biso   1.000  C
  C1648    1.0000 0.50920  0.30030  0.04140  Biso   1.000  C
  C1649    1.0000 0.69970  0.20890  0.04140  Biso   1.000  C
  C1650    1.0000 0.79110  0.49080  0.04140  Biso   1.000  C
  C1651    1.0000 0.69970  0.49080  0.45860  Biso   1.000  C
  C1652    1.0000 0.79110  0.30030  0.45860  Biso   1.000  C
  C1653    1.0000 0.50920  0.20890  0.45860  Biso   1.000  C
  C1654    1.0000 0.30030  0.50920  0.95860  Biso   1.000  C
  C1655    1.0000 0.20890  0.69970  0.95860  Biso   1.000  C
  C1656    1.0000 0.49080  0.79110  0.95860  Biso   1.000  C
  C1657    1.0000 0.50920  0.30030  0.45860  Biso   1.000  C
  C1658    1.0000 0.69970  0.20890  0.45860  Biso   1.000  C
  C1659    1.0000 0.79110  0.49080  0.45860  Biso   1.000  C
  C1660    1.0000 0.49080  0.69970  0.95860  Biso   1.000  C
  C1661    1.0000 0.30030  0.79110  0.95860  Biso   1.000  C
  C1662    1.0000 0.20890  0.50920  0.95860  Biso   1.000  C
  C1663    1.0000 0.30030  0.50920  0.54140  Biso   1.000  C
  C1664    1.0000 0.20890  0.69970  0.54140  Biso   1.000  C
  C1665    1.0000 0.49080  0.79110  0.54140  Biso   1.000  C
  C1666    1.0000 0.69970  0.49080  0.04140  Biso   1.000  C
  C1667    1.0000 0.79110  0.30030  0.04140  Biso   1.000  C
  C1668    1.0000 0.50920  0.20890  0.04140  Biso   1.000  C
  H817     1.0000 0.47390  0.69780  0.55130  Biso   1.000  H
  H818     1.0000 0.30220  0.77610  0.55130  Biso   1.000  H
  H819     1.0000 0.22390  0.52610  0.55130  Biso   1.000  H
  H820     1.0000 0.52610  0.30220  0.05130  Biso   1.000  H
  H821     1.0000 0.69780  0.22390  0.05130  Biso   1.000  H
  H822     1.0000 0.77610  0.47390  0.05130  Biso   1.000  H
  H823     1.0000 0.69780  0.47390  0.44870  Biso   1.000  H
  H824     1.0000 0.77610  0.30220  0.44870  Biso   1.000  H
  H825     1.0000 0.52610  0.22390  0.44870  Biso   1.000  H
  H826     1.0000 0.30220  0.52610  0.94870  Biso   1.000  H
  H827     1.0000 0.22390  0.69780  0.94870  Biso   1.000  H
  H828     1.0000 0.47390  0.77610  0.94870  Biso   1.000  H
  H829     1.0000 0.52610  0.30220  0.44870  Biso   1.000  H
  H830     1.0000 0.69780  0.22390  0.44870  Biso   1.000  H
  H831     1.0000 0.77610  0.47390  0.44870  Biso   1.000  H
  H832     1.0000 0.47390  0.69780  0.94870  Biso   1.000  H
  H833     1.0000 0.30220  0.77610  0.94870  Biso   1.000  H
  H834     1.0000 0.22390  0.52610  0.94870  Biso   1.000  H
  H835     1.0000 0.30220  0.52610  0.55130  Biso   1.000  H
  H836     1.0000 0.22390  0.69780  0.55130  Biso   1.000  H
  H837     1.0000 0.47390  0.77610  0.55130  Biso   1.000  H
  H838     1.0000 0.69780  0.47390  0.05130  Biso   1.000  H
  H839     1.0000 0.77610  0.30220  0.05130  Biso   1.000  H
  H840     1.0000 0.52610  0.22390  0.05130  Biso   1.000  H
  C1669    1.0000 0.50990  0.73570  0.53110  Biso   1.000  C
  C1670    1.0000 0.26430  0.77420  0.53110  Biso   1.000  C
  C1671    1.0000 0.22580  0.49010  0.53110  Biso   1.000  C
  C1672    1.0000 0.49010  0.26430  0.03110  Biso   1.000  C
  C1673    1.0000 0.73570  0.22580  0.03110  Biso   1.000  C
  C1674    1.0000 0.77420  0.50990  0.03110  Biso   1.000  C
  C1675    1.0000 0.73570  0.50990  0.46890  Biso   1.000  C
  C1676    1.0000 0.77420  0.26430  0.46890  Biso   1.000  C
  C1677    1.0000 0.49010  0.22580  0.46890  Biso   1.000  C
  C1678    1.0000 0.26430  0.49010  0.96890  Biso   1.000  C
  C1679    1.0000 0.22580  0.73570  0.96890  Biso   1.000  C
  C1680    1.0000 0.50990  0.77420  0.96890  Biso   1.000  C
  C1681    1.0000 0.49010  0.26430  0.46890  Biso   1.000  C
  C1682    1.0000 0.73570  0.22580  0.46890  Biso   1.000  C
  C1683    1.0000 0.77420  0.50990  0.46890  Biso   1.000  C
  C1684    1.0000 0.50990  0.73570  0.96890  Biso   1.000  C
  C1685    1.0000 0.26430  0.77420  0.96890  Biso   1.000  C
  C1686    1.0000 0.22580  0.49010  0.96890  Biso   1.000  C
  C1687    1.0000 0.26430  0.49010  0.53110  Biso   1.000  C
  C1688    1.0000 0.22580  0.73570  0.53110  Biso   1.000  C
  C1689    1.0000 0.50990  0.77420  0.53110  Biso   1.000  C
  C1690    1.0000 0.73570  0.50990  0.03110  Biso   1.000  C
  C1691    1.0000 0.77420  0.26430  0.03110  Biso   1.000  C
  C1692    1.0000 0.49010  0.22580  0.03110  Biso   1.000  C
  C1693    1.0000 0.53470  0.73840  0.51657  Biso   1.000  C
  C1694    1.0000 0.26160  0.79630  0.51657  Biso   1.000  C
  C1695    1.0000 0.20370  0.46530  0.51657  Biso   1.000  C
  C1696    1.0000 0.46530  0.26160  0.01657  Biso   1.000  C
  C1697    1.0000 0.73840  0.20370  0.01657  Biso   1.000  C
  C1698    1.0000 0.79630  0.53470  0.01657  Biso   1.000  C
  C1699    1.0000 0.73840  0.53470  0.48343  Biso   1.000  C
  C1700    1.0000 0.79630  0.26160  0.48343  Biso   1.000  C
  C1701    1.0000 0.46530  0.20370  0.48343  Biso   1.000  C
  C1702    1.0000 0.26160  0.46530  0.98343  Biso   1.000  C
  C1703    1.0000 0.20370  0.73840  0.98343  Biso   1.000  C
  C1704    1.0000 0.53470  0.79630  0.98343  Biso   1.000  C
  C1705    1.0000 0.46530  0.26160  0.48343  Biso   1.000  C
  C1706    1.0000 0.73840  0.20370  0.48343  Biso   1.000  C
  C1707    1.0000 0.79630  0.53470  0.48343  Biso   1.000  C
  C1708    1.0000 0.53470  0.73840  0.98343  Biso   1.000  C
  C1709    1.0000 0.26160  0.79630  0.98343  Biso   1.000  C
  C1710    1.0000 0.20370  0.46530  0.98343  Biso   1.000  C
  C1711    1.0000 0.26160  0.46530  0.51657  Biso   1.000  C
  C1712    1.0000 0.20370  0.73840  0.51657  Biso   1.000  C
  C1713    1.0000 0.53470  0.79630  0.51657  Biso   1.000  C
  C1714    1.0000 0.73840  0.53470  0.01657  Biso   1.000  C
  C1715    1.0000 0.79630  0.26160  0.01657  Biso   1.000  C
  C1716    1.0000 0.46530  0.20370  0.01657  Biso   1.000  C
  C1717    1.0000 0.54040  0.70510  0.51237  Biso   1.000  C
  C1718    1.0000 0.29490  0.83530  0.51237  Biso   1.000  C
  C1719    1.0000 0.16470  0.45960  0.51237  Biso   1.000  C
  C1720    1.0000 0.45960  0.29490  0.01237  Biso   1.000  C
  C1721    1.0000 0.70510  0.16470  0.01237  Biso   1.000  C
  C1722    1.0000 0.83530  0.54040  0.01237  Biso   1.000  C
  C1723    1.0000 0.70510  0.54040  0.48763  Biso   1.000  C
  C1724    1.0000 0.83530  0.29490  0.48763  Biso   1.000  C
  C1725    1.0000 0.45960  0.16470  0.48763  Biso   1.000  C
  C1726    1.0000 0.29490  0.45960  0.98763  Biso   1.000  C
  C1727    1.0000 0.16470  0.70510  0.98763  Biso   1.000  C
  C1728    1.0000 0.54040  0.83530  0.98763  Biso   1.000  C
  C1729    1.0000 0.45960  0.29490  0.48763  Biso   1.000  C
  C1730    1.0000 0.70510  0.16470  0.48763  Biso   1.000  C
  C1731    1.0000 0.83530  0.54040  0.48763  Biso   1.000  C
  C1732    1.0000 0.54040  0.70510  0.98763  Biso   1.000  C
  C1733    1.0000 0.29490  0.83530  0.98763  Biso   1.000  C
  C1734    1.0000 0.16470  0.45960  0.98763  Biso   1.000  C
  C1735    1.0000 0.29490  0.45960  0.51237  Biso   1.000  C
  C1736    1.0000 0.16470  0.70510  0.51237  Biso   1.000  C
  C1737    1.0000 0.54040  0.83530  0.51237  Biso   1.000  C
  C1738    1.0000 0.70510  0.54040  0.01237  Biso   1.000  C
  C1739    1.0000 0.83530  0.29490  0.01237  Biso   1.000  C
  C1740    1.0000 0.45960  0.16470  0.01237  Biso   1.000  C
  H841     1.0000 0.55730  0.70700  0.50250  Biso   1.000  H
  H842     1.0000 0.29300  0.85030  0.50250  Biso   1.000  H
  H843     1.0000 0.14970  0.44270  0.50250  Biso   1.000  H
  H844     1.0000 0.44270  0.29300  0.00250  Biso   1.000  H
  H845     1.0000 0.70700  0.14970  0.00250  Biso   1.000  H
  H846     1.0000 0.85030  0.55730  0.00250  Biso   1.000  H
  H847     1.0000 0.70700  0.55730  0.49750  Biso   1.000  H
  H848     1.0000 0.85030  0.29300  0.49750  Biso   1.000  H
  H849     1.0000 0.44270  0.14970  0.49750  Biso   1.000  H
  H850     1.0000 0.29300  0.44270  0.99750  Biso   1.000  H
  H851     1.0000 0.14970  0.70700  0.99750  Biso   1.000  H
  H852     1.0000 0.55730  0.85030  0.99750  Biso   1.000  H
  H853     1.0000 0.44270  0.29300  0.49750  Biso   1.000  H
  H854     1.0000 0.70700  0.14970  0.49750  Biso   1.000  H
  H855     1.0000 0.85030  0.55730  0.49750  Biso   1.000  H
  H856     1.0000 0.55730  0.70700  0.99750  Biso   1.000  H
  H857     1.0000 0.29300  0.85030  0.99750  Biso   1.000  H
  H858     1.0000 0.14970  0.44270  0.99750  Biso   1.000  H
  H859     1.0000 0.29300  0.44270  0.50250  Biso   1.000  H
  H860     1.0000 0.14970  0.70700  0.50250  Biso   1.000  H
  H861     1.0000 0.55730  0.85030  0.50250  Biso   1.000  H
  H862     1.0000 0.70700  0.55730  0.00250  Biso   1.000  H
  H863     1.0000 0.85030  0.29300  0.00250  Biso   1.000  H
  H864     1.0000 0.44270  0.14970  0.00250  Biso   1.000  H
  C1741    1.0000 0.52130  0.66910  0.52269  Biso   1.000  C
  C1742    1.0000 0.33090  0.85220  0.52269  Biso   1.000  C
  C1743    1.0000 0.14780  0.47870  0.52269  Biso   1.000  C
  C1744    1.0000 0.47870  0.33090  0.02269  Biso   1.000  C
  C1745    1.0000 0.66910  0.14780  0.02269  Biso   1.000  C
  C1746    1.0000 0.85220  0.52130  0.02269  Biso   1.000  C
  C1747    1.0000 0.66910  0.52130  0.47731  Biso   1.000  C
  C1748    1.0000 0.85220  0.33090  0.47731  Biso   1.000  C
  C1749    1.0000 0.47870  0.14780  0.47731  Biso   1.000  C
  C1750    1.0000 0.33090  0.47870  0.97731  Biso   1.000  C
  C1751    1.0000 0.14780  0.66910  0.97731  Biso   1.000  C
  C1752    1.0000 0.52130  0.85220  0.97731  Biso   1.000  C
  C1753    1.0000 0.47870  0.33090  0.47731  Biso   1.000  C
  C1754    1.0000 0.66910  0.14780  0.47731  Biso   1.000  C
  C1755    1.0000 0.85220  0.52130  0.47731  Biso   1.000  C
  C1756    1.0000 0.52130  0.66910  0.97731  Biso   1.000  C
  C1757    1.0000 0.33090  0.85220  0.97731  Biso   1.000  C
  C1758    1.0000 0.14780  0.47870  0.97731  Biso   1.000  C
  C1759    1.0000 0.33090  0.47870  0.52269  Biso   1.000  C
  C1760    1.0000 0.14780  0.66910  0.52269  Biso   1.000  C
  C1761    1.0000 0.52130  0.85220  0.52269  Biso   1.000  C
  C1762    1.0000 0.66910  0.52130  0.02269  Biso   1.000  C
  C1763    1.0000 0.85220  0.33090  0.02269  Biso   1.000  C
  C1764    1.0000 0.47870  0.14780  0.02269  Biso   1.000  C
  H865     1.0000 0.52520  0.64640  0.51980  Biso   1.000  H
  H866     1.0000 0.35360  0.87880  0.51980  Biso   1.000  H
  H867     1.0000 0.12120  0.47480  0.51980  Biso   1.000  H
  H868     1.0000 0.47480  0.35360  0.01980  Biso   1.000  H
  H869     1.0000 0.64640  0.12120  0.01980  Biso   1.000  H
  H870     1.0000 0.87880  0.52520  0.01980  Biso   1.000  H
  H871     1.0000 0.64640  0.52520  0.48020  Biso   1.000  H
  H872     1.0000 0.87880  0.35360  0.48020  Biso   1.000  H
  H873     1.0000 0.47480  0.12120  0.48020  Biso   1.000  H
  H874     1.0000 0.35360  0.47480  0.98020  Biso   1.000  H
  H875     1.0000 0.12120  0.64640  0.98020  Biso   1.000  H
  H876     1.0000 0.52520  0.87880  0.98020  Biso   1.000  H
  H877     1.0000 0.47480  0.35360  0.48020  Biso   1.000  H
  H878     1.0000 0.64640  0.12120  0.48020  Biso   1.000  H
  H879     1.0000 0.87880  0.52520  0.48020  Biso   1.000  H
  H880     1.0000 0.52520  0.64640  0.98020  Biso   1.000  H
  H881     1.0000 0.35360  0.87880  0.98020  Biso   1.000  H
  H882     1.0000 0.12120  0.47480  0.98020  Biso   1.000  H
  H883     1.0000 0.35360  0.47480  0.51980  Biso   1.000  H
  H884     1.0000 0.12120  0.64640  0.51980  Biso   1.000  H
  H885     1.0000 0.52520  0.87880  0.51980  Biso   1.000  H
  H886     1.0000 0.64640  0.52520  0.01980  Biso   1.000  H
  H887     1.0000 0.87880  0.35360  0.01980  Biso   1.000  H
  H888     1.0000 0.47480  0.12120  0.01980  Biso   1.000  H
  C1765    1.0000 0.47240  0.62660  0.54800  Biso   1.000  C
  C1766    1.0000 0.37340  0.84580  0.54800  Biso   1.000  C
  C1767    1.0000 0.15420  0.52760  0.54800  Biso   1.000  C
  C1768    1.0000 0.52760  0.37340  0.04800  Biso   1.000  C
  C1769    1.0000 0.62660  0.15420  0.04800  Biso   1.000  C
  C1770    1.0000 0.84580  0.47240  0.04800  Biso   1.000  C
  C1771    1.0000 0.62660  0.47240  0.45200  Biso   1.000  C
  C1772    1.0000 0.84580  0.37340  0.45200  Biso   1.000  C
  C1773    1.0000 0.52760  0.15420  0.45200  Biso   1.000  C
  C1774    1.0000 0.37340  0.52760  0.95200  Biso   1.000  C
  C1775    1.0000 0.15420  0.62660  0.95200  Biso   1.000  C
  C1776    1.0000 0.47240  0.84580  0.95200  Biso   1.000  C
  C1777    1.0000 0.52760  0.37340  0.45200  Biso   1.000  C
  C1778    1.0000 0.62660  0.15420  0.45200  Biso   1.000  C
  C1779    1.0000 0.84580  0.47240  0.45200  Biso   1.000  C
  C1780    1.0000 0.47240  0.62660  0.95200  Biso   1.000  C
  C1781    1.0000 0.37340  0.84580  0.95200  Biso   1.000  C
  C1782    1.0000 0.15420  0.52760  0.95200  Biso   1.000  C
  C1783    1.0000 0.37340  0.52760  0.54800  Biso   1.000  C
  C1784    1.0000 0.15420  0.62660  0.54800  Biso   1.000  C
  C1785    1.0000 0.47240  0.84580  0.54800  Biso   1.000  C
  C1786    1.0000 0.62660  0.47240  0.04800  Biso   1.000  C
  C1787    1.0000 0.84580  0.37340  0.04800  Biso   1.000  C
  C1788    1.0000 0.52760  0.15420  0.04800  Biso   1.000  C
  C1789    1.0000 0.53910  0.74960  0.45270  Biso   1.000  C
  C1790    1.0000 0.25040  0.78950  0.45270  Biso   1.000  C
  C1791    1.0000 0.21050  0.46090  0.45270  Biso   1.000  C
  C1792    1.0000 0.46090  0.25040  0.95270  Biso   1.000  C
  C1793    1.0000 0.74960  0.21050  0.95270  Biso   1.000  C
  C1794    1.0000 0.78950  0.53910  0.95270  Biso   1.000  C
  C1795    1.0000 0.74960  0.53910  0.54730  Biso   1.000  C
  C1796    1.0000 0.78950  0.25040  0.54730  Biso   1.000  C
  C1797    1.0000 0.46090  0.21050  0.54730  Biso   1.000  C
  C1798    1.0000 0.25040  0.46090  0.04730  Biso   1.000  C
  C1799    1.0000 0.21050  0.74960  0.04730  Biso   1.000  C
  C1800    1.0000 0.53910  0.78950  0.04730  Biso   1.000  C
  C1801    1.0000 0.46090  0.25040  0.54730  Biso   1.000  C
  C1802    1.0000 0.74960  0.21050  0.54730  Biso   1.000  C
  C1803    1.0000 0.78950  0.53910  0.54730  Biso   1.000  C
  C1804    1.0000 0.53910  0.74960  0.04730  Biso   1.000  C
  C1805    1.0000 0.25040  0.78950  0.04730  Biso   1.000  C
  C1806    1.0000 0.21050  0.46090  0.04730  Biso   1.000  C
  C1807    1.0000 0.25040  0.46090  0.45270  Biso   1.000  C
  C1808    1.0000 0.21050  0.74960  0.45270  Biso   1.000  C
  C1809    1.0000 0.53910  0.78950  0.45270  Biso   1.000  C
  C1810    1.0000 0.74960  0.53910  0.95270  Biso   1.000  C
  C1811    1.0000 0.78950  0.25040  0.95270  Biso   1.000  C
  C1812    1.0000 0.46090  0.21050  0.95270  Biso   1.000  C
  C1813    1.0000 0.52100  0.74050  0.46960  Biso   1.000  C
  C1814    1.0000 0.25950  0.78050  0.46960  Biso   1.000  C
  C1815    1.0000 0.21950  0.47900  0.46960  Biso   1.000  C
  C1816    1.0000 0.47900  0.25950  0.96960  Biso   1.000  C
  C1817    1.0000 0.74050  0.21950  0.96960  Biso   1.000  C
  C1818    1.0000 0.78050  0.52100  0.96960  Biso   1.000  C
  C1819    1.0000 0.74050  0.52100  0.53040  Biso   1.000  C
  C1820    1.0000 0.78050  0.25950  0.53040  Biso   1.000  C
  C1821    1.0000 0.47900  0.21950  0.53040  Biso   1.000  C
  C1822    1.0000 0.25950  0.47900  0.03040  Biso   1.000  C
  C1823    1.0000 0.21950  0.74050  0.03040  Biso   1.000  C
  C1824    1.0000 0.52100  0.78050  0.03040  Biso   1.000  C
  C1825    1.0000 0.47900  0.25950  0.53040  Biso   1.000  C
  C1826    1.0000 0.74050  0.21950  0.53040  Biso   1.000  C
  C1827    1.0000 0.78050  0.52100  0.53040  Biso   1.000  C
  C1828    1.0000 0.52100  0.74050  0.03040  Biso   1.000  C
  C1829    1.0000 0.25950  0.78050  0.03040  Biso   1.000  C
  C1830    1.0000 0.21950  0.47900  0.03040  Biso   1.000  C
  C1831    1.0000 0.25950  0.47900  0.46960  Biso   1.000  C
  C1832    1.0000 0.21950  0.74050  0.46960  Biso   1.000  C
  C1833    1.0000 0.52100  0.78050  0.46960  Biso   1.000  C
  C1834    1.0000 0.74050  0.52100  0.96960  Biso   1.000  C
  C1835    1.0000 0.78050  0.25950  0.96960  Biso   1.000  C
  C1836    1.0000 0.47900  0.21950  0.96960  Biso   1.000  C
  H889     1.0000 0.52700  0.72990  0.44330  Biso   1.000  H
  H890     1.0000 0.27010  0.79710  0.44330  Biso   1.000  H
  H891     1.0000 0.20290  0.47300  0.44330  Biso   1.000  H
  H892     1.0000 0.47300  0.27010  0.94330  Biso   1.000  H
  H893     1.0000 0.72990  0.20290  0.94330  Biso   1.000  H
  H894     1.0000 0.79710  0.52700  0.94330  Biso   1.000  H
  H895     1.0000 0.72990  0.52700  0.55670  Biso   1.000  H
  H896     1.0000 0.79710  0.27010  0.55670  Biso   1.000  H
  H897     1.0000 0.47300  0.20290  0.55670  Biso   1.000  H
  H898     1.0000 0.27010  0.47300  0.05670  Biso   1.000  H
  H899     1.0000 0.20290  0.72990  0.05670  Biso   1.000  H
  H900     1.0000 0.52700  0.79710  0.05670  Biso   1.000  H
  H901     1.0000 0.47300  0.27010  0.55670  Biso   1.000  H
  H902     1.0000 0.72990  0.20290  0.55670  Biso   1.000  H
  H903     1.0000 0.79710  0.52700  0.55670  Biso   1.000  H
  H904     1.0000 0.52700  0.72990  0.05670  Biso   1.000  H
  H905     1.0000 0.27010  0.79710  0.05670  Biso   1.000  H
  H906     1.0000 0.20290  0.47300  0.05670  Biso   1.000  H
  H907     1.0000 0.27010  0.47300  0.44330  Biso   1.000  H
  H908     1.0000 0.20290  0.72990  0.44330  Biso   1.000  H
  H909     1.0000 0.52700  0.79710  0.44330  Biso   1.000  H
  H910     1.0000 0.72990  0.52700  0.94330  Biso   1.000  H
  H911     1.0000 0.79710  0.27010  0.94330  Biso   1.000  H
  H912     1.0000 0.47300  0.20290  0.94330  Biso   1.000  H
  H913     1.0000 0.49660  0.71460  0.47180  Biso   1.000  H
  H914     1.0000 0.28540  0.78200  0.47180  Biso   1.000  H
  H915     1.0000 0.21800  0.50340  0.47180  Biso   1.000  H
  H916     1.0000 0.50340  0.28540  0.97180  Biso   1.000  H
  H917     1.0000 0.71460  0.21800  0.97180  Biso   1.000  H
  H918     1.0000 0.78200  0.49660  0.97180  Biso   1.000  H
  H919     1.0000 0.71460  0.49660  0.52820  Biso   1.000  H
  H920     1.0000 0.78200  0.28540  0.52820  Biso   1.000  H
  H921     1.0000 0.50340  0.21800  0.52820  Biso   1.000  H
  H922     1.0000 0.28540  0.50340  0.02820  Biso   1.000  H
  H923     1.0000 0.21800  0.71460  0.02820  Biso   1.000  H
  H924     1.0000 0.49660  0.78200  0.02820  Biso   1.000  H
  H925     1.0000 0.50340  0.28540  0.52820  Biso   1.000  H
  H926     1.0000 0.71460  0.21800  0.52820  Biso   1.000  H
  H927     1.0000 0.78200  0.49660  0.52820  Biso   1.000  H
  H928     1.0000 0.49660  0.71460  0.02820  Biso   1.000  H
  H929     1.0000 0.28540  0.78200  0.02820  Biso   1.000  H
  H930     1.0000 0.21800  0.50340  0.02820  Biso   1.000  H
  H931     1.0000 0.28540  0.50340  0.47180  Biso   1.000  H
  H932     1.0000 0.21800  0.71460  0.47180  Biso   1.000  H
  H933     1.0000 0.49660  0.78200  0.47180  Biso   1.000  H
  H934     1.0000 0.71460  0.49660  0.97180  Biso   1.000  H
  H935     1.0000 0.78200  0.28540  0.97180  Biso   1.000  H
  H936     1.0000 0.50340  0.21800  0.97180  Biso   1.000  H
