data_image0
_cell_length_a       13.306
_cell_length_b       13.306
_cell_length_c       14.528
_cell_angle_alpha    90
_cell_angle_beta     90
_cell_angle_gamma    120

_symmetry_space_group_name_H-M    "P 1"
_symmetry_int_tables_number       1

loop_
  _symmetry_equiv_pos_as_xyz
  'x, y, z'

loop_
  _atom_site_label
  _atom_site_occupancy
  _atom_site_fract_x
  _atom_site_fract_y
  _atom_site_fract_z
  _atom_site_thermal_displace_type
  _atom_site_B_iso_or_equiv
  _atom_site_type_symbol
  Eu1      1.0000 0.66670  0.33330  0.16814  Biso   1.000  Eu
  Eu2      1.0000 0.33330  0.66670  0.33186  Biso   1.000  Eu
  Eu3      1.0000 0.66660  0.33330  0.66814  Biso   1.000  Eu
  Eu4      1.0000 0.33330  0.66670  0.83186  Biso   1.000  Eu
  Cu1      1.0000 0.50000  0.50000  0.00000  Biso   1.000  Cu
  Cu2      1.0000 0.50000  0.00000  0.00000  Biso   1.000  Cu
  Cu3      1.0000 0.00000  0.50000  0.00000  Biso   1.000  Cu
  Cu4      1.0000 0.50000  0.50000  0.50000  Biso   1.000  Cu
  Cu5      1.0000 0.00000  0.50000  0.50000  Biso   1.000  Cu
  Cu6      1.0000 0.50000  0.00000  0.50000  Biso   1.000  Cu
  O1       1.0000 0.54810  0.36080  0.05790  Biso   1.000  O
  O2       1.0000 0.63920  0.18730  0.05790  Biso   1.000  O
  O3       1.0000 0.81270  0.45190  0.05790  Biso   1.000  O
  O4       1.0000 0.36080  0.54810  0.44210  Biso   1.000  O
  O5       1.0000 0.81270  0.36080  0.55790  Biso   1.000  O
  O6       1.0000 0.54810  0.18730  0.55790  Biso   1.000  O
  O7       1.0000 0.45190  0.63920  0.94210  Biso   1.000  O
  O8       1.0000 0.36080  0.81270  0.94210  Biso   1.000  O
  O9       1.0000 0.18730  0.54810  0.94210  Biso   1.000  O
  O10      1.0000 0.63920  0.45190  0.55790  Biso   1.000  O
  O11      1.0000 0.18730  0.63920  0.44210  Biso   1.000  O
  O12      1.0000 0.45190  0.81270  0.44210  Biso   1.000  O
  O13      1.0000 0.43910  0.19450  0.12690  Biso   1.000  O
  O14      1.0000 0.80550  0.24460  0.12690  Biso   1.000  O
  O15      1.0000 0.75540  0.56090  0.12690  Biso   1.000  O
  O16      1.0000 0.19450  0.43910  0.37310  Biso   1.000  O
  O17      1.0000 0.75540  0.19450  0.62690  Biso   1.000  O
  O18      1.0000 0.43910  0.24460  0.62690  Biso   1.000  O
  O19      1.0000 0.56090  0.80550  0.87310  Biso   1.000  O
  O20      1.0000 0.19450  0.75540  0.87310  Biso   1.000  O
  O21      1.0000 0.24460  0.43910  0.87310  Biso   1.000  O
  O22      1.0000 0.80550  0.56090  0.62690  Biso   1.000  O
  O23      1.0000 0.24460  0.80550  0.37310  Biso   1.000  O
  O24      1.0000 0.56090  0.75540  0.37310  Biso   1.000  O
  O25      1.0000 0.59780  0.52390  0.89300  Biso   1.000  O
  O26      1.0000 0.47610  0.07390  0.89300  Biso   1.000  O
  O27      1.0000 0.92610  0.40220  0.89300  Biso   1.000  O
  O28      1.0000 0.52390  0.59780  0.60700  Biso   1.000  O
  O29      1.0000 0.92610  0.52390  0.39300  Biso   1.000  O
  O30      1.0000 0.59780  0.07390  0.39300  Biso   1.000  O
  O31      1.0000 0.40220  0.47610  0.10700  Biso   1.000  O
  O32      1.0000 0.52390  0.92610  0.10700  Biso   1.000  O
  O33      1.0000 0.07390  0.59780  0.10700  Biso   1.000  O
  O34      1.0000 0.47610  0.40220  0.39300  Biso   1.000  O
  O35      1.0000 0.07390  0.47610  0.60700  Biso   1.000  O
  O36      1.0000 0.40220  0.92610  0.60700  Biso   1.000  O
  O37      1.0000 0.61770  0.43720  0.77220  Biso   1.000  O
  O38      1.0000 0.56280  0.18050  0.77220  Biso   1.000  O
  O39      1.0000 0.81950  0.38230  0.77220  Biso   1.000  O
  O40      1.0000 0.43720  0.61770  0.72780  Biso   1.000  O
  O41      1.0000 0.81950  0.43720  0.27220  Biso   1.000  O
  O42      1.0000 0.61770  0.18050  0.27220  Biso   1.000  O
  O43      1.0000 0.38230  0.56280  0.22780  Biso   1.000  O
  O44      1.0000 0.43720  0.81950  0.22780  Biso   1.000  O
  O45      1.0000 0.18050  0.61770  0.22780  Biso   1.000  O
  O46      1.0000 0.56280  0.38230  0.27220  Biso   1.000  O
  O47      1.0000 0.18050  0.56280  0.72780  Biso   1.000  O
  O48      1.0000 0.38230  0.81950  0.72780  Biso   1.000  O
  N1       1.0000 0.38830  0.34660  0.94160  Biso   1.000  N
  N2       1.0000 0.65340  0.04170  0.94160  Biso   1.000  N
  N3       1.0000 0.95830  0.61170  0.94160  Biso   1.000  N
  N4       1.0000 0.34660  0.38830  0.55840  Biso   1.000  N
  N5       1.0000 0.95830  0.34660  0.44160  Biso   1.000  N
  N6       1.0000 0.38830  0.04170  0.44160  Biso   1.000  N
  N7       1.0000 0.61170  0.65340  0.05840  Biso   1.000  N
  N8       1.0000 0.34660  0.95830  0.05840  Biso   1.000  N
  N9       1.0000 0.04170  0.38830  0.05840  Biso   1.000  N
  N10      1.0000 0.65340  0.61170  0.44160  Biso   1.000  N
  N11      1.0000 0.04170  0.65340  0.55840  Biso   1.000  N
  N12      1.0000 0.61170  0.95830  0.55840  Biso   1.000  N
  H1       1.0000 0.32460  0.34930  0.92200  Biso   1.000  H
  H2       1.0000 0.65070  0.97530  0.92200  Biso   1.000  H
  H3       1.0000 0.02470  0.67540  0.92200  Biso   1.000  H
  H4       1.0000 0.34930  0.32460  0.57800  Biso   1.000  H
  H5       1.0000 0.02470  0.34930  0.42200  Biso   1.000  H
  H6       1.0000 0.32460  0.97530  0.42200  Biso   1.000  H
  H7       1.0000 0.67540  0.65070  0.07800  Biso   1.000  H
  H8       1.0000 0.34930  0.02470  0.07800  Biso   1.000  H
  H9       1.0000 0.97530  0.32460  0.07800  Biso   1.000  H
  H10      1.0000 0.65070  0.67540  0.42200  Biso   1.000  H
  H11      1.0000 0.97530  0.65070  0.57800  Biso   1.000  H
  H12      1.0000 0.67540  0.02470  0.57800  Biso   1.000  H
  C1       1.0000 0.45320  0.26940  0.06990  Biso   1.000  C
  C2       1.0000 0.73060  0.18380  0.06990  Biso   1.000  C
  C3       1.0000 0.81620  0.54680  0.06990  Biso   1.000  C
  C4       1.0000 0.26940  0.45320  0.43010  Biso   1.000  C
  C5       1.0000 0.81620  0.26940  0.56990  Biso   1.000  C
  C6       1.0000 0.45320  0.18380  0.56990  Biso   1.000  C
  C7       1.0000 0.54680  0.73060  0.93010  Biso   1.000  C
  C8       1.0000 0.26940  0.81620  0.93010  Biso   1.000  C
  C9       1.0000 0.18380  0.45320  0.93010  Biso   1.000  C
  C10      1.0000 0.73060  0.54680  0.56990  Biso   1.000  C
  C11      1.0000 0.18380  0.73060  0.43010  Biso   1.000  C
  C12      1.0000 0.54680  0.81620  0.43010  Biso   1.000  C
  C13      1.0000 0.35180  0.25380  0.01070  Biso   1.000  C
  C14      1.0000 0.74620  0.09800  0.01070  Biso   1.000  C
  C15      1.0000 0.90200  0.64820  0.01070  Biso   1.000  C
  C16      1.0000 0.25380  0.35180  0.48930  Biso   1.000  C
  C17      1.0000 0.90200  0.25380  0.51070  Biso   1.000  C
  C18      1.0000 0.35180  0.09800  0.51070  Biso   1.000  C
  C19      1.0000 0.64820  0.74620  0.98930  Biso   1.000  C
  C20      1.0000 0.25380  0.90200  0.98930  Biso   1.000  C
  C21      1.0000 0.09800  0.35180  0.98930  Biso   1.000  C
  C22      1.0000 0.74620  0.64820  0.51070  Biso   1.000  C
  C23      1.0000 0.09800  0.74620  0.48930  Biso   1.000  C
  C24      1.0000 0.64820  0.90200  0.48930  Biso   1.000  C
  H13      1.0000 0.31790  0.17940  0.97960  Biso   1.000  H
  H14      1.0000 0.82060  0.13850  0.97960  Biso   1.000  H
  H15      1.0000 0.86150  0.68210  0.97960  Biso   1.000  H
  H16      1.0000 0.17940  0.31790  0.52040  Biso   1.000  H
  H17      1.0000 0.86150  0.17940  0.47960  Biso   1.000  H
  H18      1.0000 0.31790  0.13850  0.47960  Biso   1.000  H
  H19      1.0000 0.68210  0.82060  0.02040  Biso   1.000  H
  H20      1.0000 0.17940  0.86150  0.02040  Biso   1.000  H
  H21      1.0000 0.13850  0.31790  0.02040  Biso   1.000  H
  H22      1.0000 0.82060  0.68210  0.47960  Biso   1.000  H
  H23      1.0000 0.13850  0.82060  0.52040  Biso   1.000  H
  H24      1.0000 0.68210  0.86150  0.52040  Biso   1.000  H
  H25      1.0000 0.29270  0.25360  0.04990  Biso   1.000  H
  H26      1.0000 0.74640  0.03910  0.04990  Biso   1.000  H
  H27      1.0000 0.96090  0.70730  0.04990  Biso   1.000  H
  H28      1.0000 0.25360  0.29270  0.45010  Biso   1.000  H
  H29      1.0000 0.96090  0.25360  0.54990  Biso   1.000  H
  H30      1.0000 0.29270  0.03910  0.54990  Biso   1.000  H
  H31      1.0000 0.70730  0.74640  0.95010  Biso   1.000  H
  H32      1.0000 0.25360  0.96090  0.95010  Biso   1.000  H
  H33      1.0000 0.03910  0.29270  0.95010  Biso   1.000  H
  H34      1.0000 0.74640  0.70730  0.54990  Biso   1.000  H
  H35      1.0000 0.03910  0.74640  0.45010  Biso   1.000  H
  H36      1.0000 0.70730  0.96090  0.45010  Biso   1.000  H
  C25      1.0000 0.44710  0.33180  0.86070  Biso   1.000  C
  C26      1.0000 0.66820  0.11530  0.86070  Biso   1.000  C
  C27      1.0000 0.88470  0.55290  0.86070  Biso   1.000  C
  C28      1.0000 0.33180  0.44710  0.63930  Biso   1.000  C
  C29      1.0000 0.88470  0.33180  0.36070  Biso   1.000  C
  C30      1.0000 0.44710  0.11530  0.36070  Biso   1.000  C
  C31      1.0000 0.55290  0.66820  0.13930  Biso   1.000  C
  C32      1.0000 0.33180  0.88470  0.13930  Biso   1.000  C
  C33      1.0000 0.11530  0.44710  0.13930  Biso   1.000  C
  C34      1.0000 0.66820  0.55290  0.36070  Biso   1.000  C
  C35      1.0000 0.11530  0.66820  0.63930  Biso   1.000  C
  C36      1.0000 0.55290  0.88470  0.63930  Biso   1.000  C
  H37      1.0000 0.39720  0.31380  0.80730  Biso   1.000  H
  H38      1.0000 0.68620  0.08340  0.80730  Biso   1.000  H
  H39      1.0000 0.91660  0.60280  0.80730  Biso   1.000  H
  H40      1.0000 0.31380  0.39720  0.69270  Biso   1.000  H
  H41      1.0000 0.91660  0.31380  0.30730  Biso   1.000  H
  H42      1.0000 0.39720  0.08340  0.30730  Biso   1.000  H
  H43      1.0000 0.60280  0.68620  0.19270  Biso   1.000  H
  H44      1.0000 0.31380  0.91660  0.19270  Biso   1.000  H
  H45      1.0000 0.08340  0.39720  0.19270  Biso   1.000  H
  H46      1.0000 0.68620  0.60280  0.30730  Biso   1.000  H
  H47      1.0000 0.08340  0.68620  0.69270  Biso   1.000  H
  H48      1.0000 0.60280  0.91660  0.69270  Biso   1.000  H
  H49      1.0000 0.45910  0.26660  0.87150  Biso   1.000  H
  H50      1.0000 0.73340  0.19250  0.87150  Biso   1.000  H
  H51      1.0000 0.80750  0.54090  0.87150  Biso   1.000  H
  H52      1.0000 0.26660  0.45910  0.62850  Biso   1.000  H
  H53      1.0000 0.80750  0.26660  0.37150  Biso   1.000  H
  H54      1.0000 0.45910  0.19250  0.37150  Biso   1.000  H
  H55      1.0000 0.54090  0.73340  0.12850  Biso   1.000  H
  H56      1.0000 0.26660  0.80750  0.12850  Biso   1.000  H
  H57      1.0000 0.19250  0.45910  0.12850  Biso   1.000  H
  H58      1.0000 0.73340  0.54090  0.37150  Biso   1.000  H
  H59      1.0000 0.19250  0.73340  0.62850  Biso   1.000  H
  H60      1.0000 0.54090  0.80750  0.62850  Biso   1.000  H
  C37      1.0000 0.56180  0.43760  0.84060  Biso   1.000  C
  C38      1.0000 0.56240  0.12420  0.84060  Biso   1.000  C
  C39      1.0000 0.87580  0.43820  0.84060  Biso   1.000  C
  C40      1.0000 0.43760  0.56180  0.65940  Biso   1.000  C
  C41      1.0000 0.87580  0.43760  0.34060  Biso   1.000  C
  C42      1.0000 0.56180  0.12420  0.34060  Biso   1.000  C
  C43      1.0000 0.43820  0.56240  0.15940  Biso   1.000  C
  C44      1.0000 0.43760  0.87580  0.15940  Biso   1.000  C
  C45      1.0000 0.12420  0.56180  0.15940  Biso   1.000  C
  C46      1.0000 0.56240  0.43820  0.34060  Biso   1.000  C
  C47      1.0000 0.12420  0.56240  0.65940  Biso   1.000  C
  C48      1.0000 0.43820  0.87580  0.65940  Biso   1.000  C
  O49      1.0000 0.00000  0.00000  0.00000  Biso   1.000  O
  O50      1.0000 0.00000  0.00000  0.50000  Biso   1.000  O
  O51      1.0000 0.00000  0.72930  0.25000  Biso   1.000  O
  O52      1.0000 0.27070  0.27070  0.25000  Biso   1.000  O
  O53      1.0000 0.72930  0.00000  0.25000  Biso   1.000  O
  O54      1.0000 0.72930  0.72930  0.75000  Biso   1.000  O
  O55      1.0000 0.00000  0.27070  0.75000  Biso   1.000  O
  O56      1.0000 0.27070  0.00000  0.75000  Biso   1.000  O
  O57      1.0000 0.00700  0.15500  0.32500  Biso   1.000  O
  O58      1.0000 0.84500  0.85200  0.32500  Biso   1.000  O
  O59      1.0000 0.14800  0.99300  0.32500  Biso   1.000  O
  O60      1.0000 0.15500  0.00700  0.17500  Biso   1.000  O
  O61      1.0000 0.14800  0.15500  0.82500  Biso   1.000  O
  O62      1.0000 0.00700  0.85200  0.82500  Biso   1.000  O
  O63      1.0000 0.99300  0.84500  0.67500  Biso   1.000  O
  O64      1.0000 0.15500  0.14800  0.67500  Biso   1.000  O
  O65      1.0000 0.85200  0.00700  0.67500  Biso   1.000  O
  O66      1.0000 0.84500  0.99300  0.82500  Biso   1.000  O
  O67      1.0000 0.85200  0.84500  0.17500  Biso   1.000  O
  O68      1.0000 0.99300  0.14800  0.17500  Biso   1.000  O
