data_image0
_cell_length_a       13.3031
_cell_length_b       13.3031
_cell_length_c       14.566
_cell_angle_alpha    90
_cell_angle_beta     90
_cell_angle_gamma    120

_symmetry_space_group_name_H-M    "P 1"
_symmetry_int_tables_number       1

loop_
  _symmetry_equiv_pos_as_xyz
  'x, y, z'

loop_
  _atom_site_label
  _atom_site_occupancy
  _atom_site_fract_x
  _atom_site_fract_y
  _atom_site_fract_z
  _atom_site_thermal_displace_type
  _atom_site_B_iso_or_equiv
  _atom_site_type_symbol
  Eu1      1.0000 0.66670  0.33330  0.33141  Biso   1.000  Eu
  Eu2      1.0000 0.33330  0.66670  0.16858  Biso   1.000  Eu
  Eu3      1.0000 0.66660  0.33330  0.83142  Biso   1.000  Eu
  Eu4      1.0000 0.33330  0.66670  0.66858  Biso   1.000  Eu
  Cu1      1.0000 0.50000  0.50000  0.50000  Biso   1.000  Cu
  Cu2      1.0000 0.50000  0.00000  0.50000  Biso   1.000  Cu
  Cu3      1.0000 0.00000  0.50000  0.50000  Biso   1.000  Cu
  Cu4      1.0000 0.50000  0.50000  0.00000  Biso   1.000  Cu
  Cu5      1.0000 0.00000  0.50000  0.00000  Biso   1.000  Cu
  Cu6      1.0000 0.50000  0.00000  0.00000  Biso   1.000  Cu
  O1       1.0000 0.54790  0.36060  0.44094  Biso   1.000  O
  O2       1.0000 0.63940  0.18730  0.44094  Biso   1.000  O
  O3       1.0000 0.81270  0.45210  0.44094  Biso   1.000  O
  O4       1.0000 0.36060  0.54790  0.05906  Biso   1.000  O
  O5       1.0000 0.81270  0.36060  0.94094  Biso   1.000  O
  O6       1.0000 0.54790  0.18730  0.94094  Biso   1.000  O
  O7       1.0000 0.45210  0.63940  0.55906  Biso   1.000  O
  O8       1.0000 0.36060  0.81270  0.55906  Biso   1.000  O
  O9       1.0000 0.18730  0.54790  0.55906  Biso   1.000  O
  O10      1.0000 0.63940  0.45210  0.94094  Biso   1.000  O
  O11      1.0000 0.18730  0.63940  0.05906  Biso   1.000  O
  O12      1.0000 0.45210  0.81270  0.05906  Biso   1.000  O
  O13      1.0000 0.43830  0.19430  0.37330  Biso   1.000  O
  O14      1.0000 0.80570  0.24400  0.37330  Biso   1.000  O
  O15      1.0000 0.75600  0.56170  0.37330  Biso   1.000  O
  O16      1.0000 0.19430  0.43830  0.12670  Biso   1.000  O
  O17      1.0000 0.75600  0.19430  0.87330  Biso   1.000  O
  O18      1.0000 0.43830  0.24400  0.87330  Biso   1.000  O
  O19      1.0000 0.56170  0.80570  0.62670  Biso   1.000  O
  O20      1.0000 0.19430  0.75600  0.62670  Biso   1.000  O
  O21      1.0000 0.24400  0.43830  0.62670  Biso   1.000  O
  O22      1.0000 0.80570  0.56170  0.87330  Biso   1.000  O
  O23      1.0000 0.24400  0.80570  0.12670  Biso   1.000  O
  O24      1.0000 0.56170  0.75600  0.12670  Biso   1.000  O
  C1       1.0000 0.45160  0.26930  0.43000  Biso   1.000  C
  C2       1.0000 0.73070  0.18230  0.43000  Biso   1.000  C
  C3       1.0000 0.81770  0.54840  0.43000  Biso   1.000  C
  C4       1.0000 0.26930  0.45160  0.07000  Biso   1.000  C
  C5       1.0000 0.81770  0.26930  0.93000  Biso   1.000  C
  C6       1.0000 0.45160  0.18230  0.93000  Biso   1.000  C
  C7       1.0000 0.54840  0.73070  0.57000  Biso   1.000  C
  C8       1.0000 0.26930  0.81770  0.57000  Biso   1.000  C
  C9       1.0000 0.18230  0.45160  0.57000  Biso   1.000  C
  C10      1.0000 0.73070  0.54840  0.93000  Biso   1.000  C
  C11      1.0000 0.18230  0.73070  0.07000  Biso   1.000  C
  C12      1.0000 0.54840  0.81770  0.07000  Biso   1.000  C
  C13      1.0000 0.35140  0.25370  0.48850  Biso   1.000  C
  C14      1.0000 0.74630  0.09770  0.48850  Biso   1.000  C
  C15      1.0000 0.90230  0.64860  0.48850  Biso   1.000  C
  C16      1.0000 0.25370  0.35140  0.01150  Biso   1.000  C
  C17      1.0000 0.90230  0.25370  0.98850  Biso   1.000  C
  C18      1.0000 0.35140  0.09770  0.98850  Biso   1.000  C
  C19      1.0000 0.64860  0.74630  0.51150  Biso   1.000  C
  C20      1.0000 0.25370  0.90230  0.51150  Biso   1.000  C
  C21      1.0000 0.09770  0.35140  0.51150  Biso   1.000  C
  C22      1.0000 0.74630  0.64860  0.98850  Biso   1.000  C
  C23      1.0000 0.09770  0.74630  0.01150  Biso   1.000  C
  C24      1.0000 0.64860  0.90230  0.01150  Biso   1.000  C
  H1       1.0000 0.29240  0.25390  0.44950  Biso   1.000  H
  H2       1.0000 0.74610  0.03850  0.44950  Biso   1.000  H
  H3       1.0000 0.96150  0.70760  0.44950  Biso   1.000  H
  H4       1.0000 0.25390  0.29240  0.05050  Biso   1.000  H
  H5       1.0000 0.96150  0.25390  0.94950  Biso   1.000  H
  H6       1.0000 0.29240  0.03850  0.94950  Biso   1.000  H
  H7       1.0000 0.70760  0.74610  0.55050  Biso   1.000  H
  H8       1.0000 0.25390  0.96150  0.55050  Biso   1.000  H
  H9       1.0000 0.03850  0.29240  0.55050  Biso   1.000  H
  H10      1.0000 0.74610  0.70760  0.94950  Biso   1.000  H
  H11      1.0000 0.03850  0.74610  0.05050  Biso   1.000  H
  H12      1.0000 0.70760  0.96150  0.05050  Biso   1.000  H
  H13      1.0000 0.31730  0.17900  0.51910  Biso   1.000  H
  H14      1.0000 0.82100  0.13830  0.51910  Biso   1.000  H
  H15      1.0000 0.86170  0.68270  0.51910  Biso   1.000  H
  H16      1.0000 0.17900  0.31730  0.98090  Biso   1.000  H
  H17      1.0000 0.86170  0.17900  0.01910  Biso   1.000  H
  H18      1.0000 0.31730  0.13830  0.01910  Biso   1.000  H
  H19      1.0000 0.68270  0.82100  0.48090  Biso   1.000  H
  H20      1.0000 0.17900  0.86170  0.48090  Biso   1.000  H
  H21      1.0000 0.13830  0.31730  0.48090  Biso   1.000  H
  H22      1.0000 0.82100  0.68270  0.01910  Biso   1.000  H
  H23      1.0000 0.13830  0.82100  0.98090  Biso   1.000  H
  H24      1.0000 0.68270  0.86170  0.98090  Biso   1.000  H
  N1       1.0000 0.38780  0.34610  0.55802  Biso   1.000  N
  N2       1.0000 0.65390  0.04170  0.55802  Biso   1.000  N
  N3       1.0000 0.95830  0.61220  0.55802  Biso   1.000  N
  N4       1.0000 0.34610  0.38780  0.94198  Biso   1.000  N
  N5       1.0000 0.95830  0.34610  0.05802  Biso   1.000  N
  N6       1.0000 0.38780  0.04170  0.05802  Biso   1.000  N
  N7       1.0000 0.61220  0.65390  0.44198  Biso   1.000  N
  N8       1.0000 0.34610  0.95830  0.44198  Biso   1.000  N
  N9       1.0000 0.04170  0.38780  0.44198  Biso   1.000  N
  N10      1.0000 0.65390  0.61220  0.05802  Biso   1.000  N
  N11      1.0000 0.04170  0.65390  0.94198  Biso   1.000  N
  N12      1.0000 0.61220  0.95830  0.94198  Biso   1.000  N
  H25      1.0000 0.32420  0.34880  0.57750  Biso   1.000  H
  H26      1.0000 0.65120  0.97540  0.57750  Biso   1.000  H
  H27      1.0000 0.02460  0.67580  0.57750  Biso   1.000  H
  H28      1.0000 0.34880  0.32420  0.92250  Biso   1.000  H
  H29      1.0000 0.02460  0.34880  0.07750  Biso   1.000  H
  H30      1.0000 0.32420  0.97540  0.07750  Biso   1.000  H
  H31      1.0000 0.67580  0.65120  0.42250  Biso   1.000  H
  H32      1.0000 0.34880  0.02460  0.42250  Biso   1.000  H
  H33      1.0000 0.97540  0.32420  0.42250  Biso   1.000  H
  H34      1.0000 0.65120  0.67580  0.07750  Biso   1.000  H
  H35      1.0000 0.97540  0.65120  0.92250  Biso   1.000  H
  H36      1.0000 0.67580  0.02460  0.92250  Biso   1.000  H
  C25      1.0000 0.44640  0.33100  0.63870  Biso   1.000  C
  C26      1.0000 0.66900  0.11540  0.63870  Biso   1.000  C
  C27      1.0000 0.88460  0.55360  0.63870  Biso   1.000  C
  C28      1.0000 0.33100  0.44640  0.86130  Biso   1.000  C
  C29      1.0000 0.88460  0.33100  0.13870  Biso   1.000  C
  C30      1.0000 0.44640  0.11540  0.13870  Biso   1.000  C
  C31      1.0000 0.55360  0.66900  0.36130  Biso   1.000  C
  C32      1.0000 0.33100  0.88460  0.36130  Biso   1.000  C
  C33      1.0000 0.11540  0.44640  0.36130  Biso   1.000  C
  C34      1.0000 0.66900  0.55360  0.13870  Biso   1.000  C
  C35      1.0000 0.11540  0.66900  0.86130  Biso   1.000  C
  C36      1.0000 0.55360  0.88460  0.86130  Biso   1.000  C
  H37      1.0000 0.45840  0.26590  0.62790  Biso   1.000  H
  H38      1.0000 0.73410  0.19250  0.62790  Biso   1.000  H
  H39      1.0000 0.80750  0.54160  0.62790  Biso   1.000  H
  H40      1.0000 0.26590  0.45840  0.87210  Biso   1.000  H
  H41      1.0000 0.80750  0.26590  0.12790  Biso   1.000  H
  H42      1.0000 0.45840  0.19250  0.12790  Biso   1.000  H
  H43      1.0000 0.54160  0.73410  0.37210  Biso   1.000  H
  H44      1.0000 0.26590  0.80750  0.37210  Biso   1.000  H
  H45      1.0000 0.19250  0.45840  0.37210  Biso   1.000  H
  H46      1.0000 0.73410  0.54160  0.12790  Biso   1.000  H
  H47      1.0000 0.19250  0.73410  0.87210  Biso   1.000  H
  H48      1.0000 0.54160  0.80750  0.87210  Biso   1.000  H
  H49      1.0000 0.39620  0.31260  0.69180  Biso   1.000  H
  H50      1.0000 0.68740  0.08360  0.69180  Biso   1.000  H
  H51      1.0000 0.91640  0.60380  0.69180  Biso   1.000  H
  H52      1.0000 0.31260  0.39620  0.80820  Biso   1.000  H
  H53      1.0000 0.91640  0.31260  0.19180  Biso   1.000  H
  H54      1.0000 0.39620  0.08360  0.19180  Biso   1.000  H
  H55      1.0000 0.60380  0.68740  0.30820  Biso   1.000  H
  H56      1.0000 0.31260  0.91640  0.30820  Biso   1.000  H
  H57      1.0000 0.08360  0.39620  0.30820  Biso   1.000  H
  H58      1.0000 0.68740  0.60380  0.19180  Biso   1.000  H
  H59      1.0000 0.08360  0.68740  0.80820  Biso   1.000  H
  H60      1.0000 0.60380  0.91640  0.80820  Biso   1.000  H
  C37      1.0000 0.56090  0.43670  0.65940  Biso   1.000  C
  C38      1.0000 0.56330  0.12420  0.65940  Biso   1.000  C
  C39      1.0000 0.87580  0.43910  0.65940  Biso   1.000  C
  C40      1.0000 0.43670  0.56090  0.84060  Biso   1.000  C
  C41      1.0000 0.87580  0.43670  0.15940  Biso   1.000  C
  C42      1.0000 0.56090  0.12420  0.15940  Biso   1.000  C
  C43      1.0000 0.43910  0.56330  0.34060  Biso   1.000  C
  C44      1.0000 0.43670  0.87580  0.34060  Biso   1.000  C
  C45      1.0000 0.12420  0.56090  0.34060  Biso   1.000  C
  C46      1.0000 0.56330  0.43910  0.15940  Biso   1.000  C
  C47      1.0000 0.12420  0.56330  0.84060  Biso   1.000  C
  C48      1.0000 0.43910  0.87580  0.84060  Biso   1.000  C
  O25      1.0000 0.59890  0.52380  0.60630  Biso   1.000  O
  O26      1.0000 0.47620  0.07510  0.60630  Biso   1.000  O
  O27      1.0000 0.92490  0.40110  0.60630  Biso   1.000  O
  O28      1.0000 0.52380  0.59890  0.89370  Biso   1.000  O
  O29      1.0000 0.92490  0.52380  0.10630  Biso   1.000  O
  O30      1.0000 0.59890  0.07510  0.10630  Biso   1.000  O
  O31      1.0000 0.40110  0.47620  0.39370  Biso   1.000  O
  O32      1.0000 0.52380  0.92490  0.39370  Biso   1.000  O
  O33      1.0000 0.07510  0.59890  0.39370  Biso   1.000  O
  O34      1.0000 0.47620  0.40110  0.10630  Biso   1.000  O
  O35      1.0000 0.07510  0.47620  0.89370  Biso   1.000  O
  O36      1.0000 0.40110  0.92490  0.89370  Biso   1.000  O
  O37      1.0000 0.61710  0.43570  0.72767  Biso   1.000  O
  O38      1.0000 0.56430  0.18140  0.72767  Biso   1.000  O
  O39      1.0000 0.81860  0.38290  0.72767  Biso   1.000  O
  O40      1.0000 0.43570  0.61710  0.77233  Biso   1.000  O
  O41      1.0000 0.81860  0.43570  0.22767  Biso   1.000  O
  O42      1.0000 0.61710  0.18140  0.22767  Biso   1.000  O
  O43      1.0000 0.38290  0.56430  0.27233  Biso   1.000  O
  O44      1.0000 0.43570  0.81860  0.27233  Biso   1.000  O
  O45      1.0000 0.18140  0.61710  0.27233  Biso   1.000  O
  O46      1.0000 0.56430  0.38290  0.22767  Biso   1.000  O
  O47      1.0000 0.18140  0.56430  0.77233  Biso   1.000  O
  O48      1.0000 0.38290  0.81860  0.77233  Biso   1.000  O
  O49      1.0000 0.27310  0.27310  0.25000  Biso   1.000  O
  O50      1.0000 0.72690  0.00000  0.25000  Biso   1.000  O
  O51      1.0000 0.00000  0.72690  0.25000  Biso   1.000  O
  O52      1.0000 0.00000  0.27310  0.75000  Biso   1.000  O
  O53      1.0000 0.27310  0.00000  0.75000  Biso   1.000  O
  O54      1.0000 0.72690  0.72690  0.75000  Biso   1.000  O
  O55      1.0000 0.00000  0.00000  0.46360  Biso   1.000  O
  O56      1.0000 0.00000  0.00000  0.03640  Biso   1.000  O
  O57      1.0000 0.00000  0.00000  0.96360  Biso   1.000  O
  O58      1.0000 0.00000  0.00000  0.53640  Biso   1.000  O
