data_image0
_cell_length_a       9.636
_cell_length_b       9.885
_cell_length_c       24.555
_cell_angle_alpha    90
_cell_angle_beta     111.479
_cell_angle_gamma    90

_symmetry_space_group_name_H-M    "P 1"
_symmetry_int_tables_number       1

loop_
  _symmetry_equiv_pos_as_xyz
  'x, y, z'

loop_
  _atom_site_label
  _atom_site_occupancy
  _atom_site_fract_x
  _atom_site_fract_y
  _atom_site_fract_z
  _atom_site_thermal_displace_type
  _atom_site_B_iso_or_equiv
  _atom_site_type_symbol
  Cu1      1.0000 0.20261  0.45791  0.75854  Biso   1.000  Cu
  Cu2      1.0000 0.79739  0.95791  0.74146  Biso   1.000  Cu
  Cu3      1.0000 0.79739  0.54209  0.24146  Biso   1.000  Cu
  Cu4      1.0000 0.20261  0.04209  0.25854  Biso   1.000  Cu
  C1       1.0000 0.40120  0.58630  0.87191  Biso   1.000  C
  C2       1.0000 0.59880  0.08630  0.62809  Biso   1.000  C
  C3       1.0000 0.59880  0.41370  0.12809  Biso   1.000  C
  C4       1.0000 0.40120  0.91370  0.37191  Biso   1.000  C
  H1       1.0000 0.44290  0.50330  0.88710  Biso   1.000  H
  H2       1.0000 0.55710  0.00330  0.61290  Biso   1.000  H
  H3       1.0000 0.55710  0.49670  0.11290  Biso   1.000  H
  H4       1.0000 0.44290  0.99670  0.38710  Biso   1.000  H
  C5       1.0000 0.26700  0.73140  0.81459  Biso   1.000  C
  C6       1.0000 0.73300  0.23140  0.68541  Biso   1.000  C
  C7       1.0000 0.73300  0.26860  0.18541  Biso   1.000  C
  C8       1.0000 0.26700  0.76860  0.31459  Biso   1.000  C
  H5       1.0000 0.19740  0.77480  0.78260  Biso   1.000  H
  H6       1.0000 0.80260  0.27480  0.71740  Biso   1.000  H
  H7       1.0000 0.80260  0.22520  0.21740  Biso   1.000  H
  H8       1.0000 0.19740  0.72520  0.28260  Biso   1.000  H
  C9       1.0000 0.36570  0.93720  0.87550  Biso   1.000  C
  C10      1.0000 0.63430  0.43720  0.62450  Biso   1.000  C
  C11      1.0000 0.63430  0.06280  0.12450  Biso   1.000  C
  C12      1.0000 0.36570  0.56280  0.37550  Biso   1.000  C
  H9       1.0000 0.26710  0.97750  0.86030  Biso   1.000  H
  H10      1.0000 0.73290  0.47750  0.63970  Biso   1.000  H
  H11      1.0000 0.73290  0.02250  0.13970  Biso   1.000  H
  H12      1.0000 0.26710  0.52250  0.36030  Biso   1.000  H
  H13      1.0000 0.42500  0.97870  0.85560  Biso   1.000  H
  H14      1.0000 0.57500  0.47870  0.64440  Biso   1.000  H
  H15      1.0000 0.57500  0.02130  0.14440  Biso   1.000  H
  H16      1.0000 0.42500  0.52130  0.35560  Biso   1.000  H
  C13      1.0000 0.43550  0.96620  0.93937  Biso   1.000  C
  C14      1.0000 0.56450  0.46620  0.56063  Biso   1.000  C
  C15      1.0000 0.56450  0.03380  0.06063  Biso   1.000  C
  C16      1.0000 0.43550  0.53380  0.43937  Biso   1.000  C
  C17      1.0000 0.57000  0.03310  0.96295  Biso   1.000  C
  C18      1.0000 0.43000  0.53310  0.53705  Biso   1.000  C
  C19      1.0000 0.43000  0.96690  0.03705  Biso   1.000  C
  C20      1.0000 0.57000  0.46690  0.46295  Biso   1.000  C
  C21      1.0000 0.63200  0.06590  0.02112  Biso   1.000  C
  C22      1.0000 0.36800  0.56590  0.47888  Biso   1.000  C
  C23      1.0000 0.36800  0.93410  0.97888  Biso   1.000  C
  C24      1.0000 0.63200  0.43410  0.52112  Biso   1.000  C
  C25      1.0000 0.26340  0.31060  0.66436  Biso   1.000  C
  C26      1.0000 0.73660  0.81060  0.83564  Biso   1.000  C
  C27      1.0000 0.73660  0.68940  0.33564  Biso   1.000  C
  C28      1.0000 0.26340  0.18940  0.16436  Biso   1.000  C
  H17      1.0000 0.31860  0.38380  0.65970  Biso   1.000  H
  H18      1.0000 0.68140  0.88380  0.84030  Biso   1.000  H
  H19      1.0000 0.68140  0.61620  0.34030  Biso   1.000  H
  H20      1.0000 0.31860  0.11620  0.15970  Biso   1.000  H
  C29      1.0000 0.13180  0.18760  0.69656  Biso   1.000  C
  C30      1.0000 0.86820  0.68760  0.80344  Biso   1.000  C
  C31      1.0000 0.86820  0.81240  0.30344  Biso   1.000  C
  C32      1.0000 0.13180  0.31240  0.19656  Biso   1.000  C
  H21      1.0000 0.07760  0.15320  0.71800  Biso   1.000  H
  H22      1.0000 0.92240  0.65320  0.78200  Biso   1.000  H
  H23      1.0000 0.92240  0.84680  0.28200  Biso   1.000  H
  H24      1.0000 0.07760  0.34680  0.21800  Biso   1.000  H
  C33      1.0000 0.10800  0.99030  0.62821  Biso   1.000  C
  C34      1.0000 0.89200  0.49030  0.87179  Biso   1.000  C
  C35      1.0000 0.89200  0.00970  0.37179  Biso   1.000  C
  C36      1.0000 0.10800  0.50970  0.12821  Biso   1.000  C
  H25      1.0000 0.02900  0.95700  0.64020  Biso   1.000  H
  H26      1.0000 0.97100  0.45700  0.85980  Biso   1.000  H
  H27      1.0000 0.97100  0.04300  0.35980  Biso   1.000  H
  H28      1.0000 0.02900  0.54300  0.14020  Biso   1.000  H
  H29      1.0000 0.19150  0.92810  0.64280  Biso   1.000  H
  H30      1.0000 0.80850  0.42810  0.85720  Biso   1.000  H
  H31      1.0000 0.80850  0.07190  0.35720  Biso   1.000  H
  H32      1.0000 0.19150  0.57190  0.14280  Biso   1.000  H
  C37      1.0000 0.05310  0.99560  0.56186  Biso   1.000  C
  C38      1.0000 0.94690  0.49560  0.93814  Biso   1.000  C
  C39      1.0000 0.94690  0.00440  0.43814  Biso   1.000  C
  C40      1.0000 0.05310  0.50440  0.06186  Biso   1.000  C
  C41      1.0000 0.91420  0.04470  0.52933  Biso   1.000  C
  C42      1.0000 0.08580  0.54470  0.97067  Biso   1.000  C
  C43      1.0000 0.08580  0.95530  0.47067  Biso   1.000  C
  C44      1.0000 0.91420  0.45530  0.02933  Biso   1.000  C
  C45      1.0000 0.13870  0.95090  0.53102  Biso   1.000  C
  C46      1.0000 0.86130  0.45090  0.96898  Biso   1.000  C
  C47      1.0000 0.86130  0.04910  0.46898  Biso   1.000  C
  C48      1.0000 0.13870  0.54910  0.03102  Biso   1.000  C
  C49      1.0000 0.03730  0.60170  0.67509  Biso   1.000  C
  C50      1.0000 0.96270  0.10170  0.82491  Biso   1.000  C
  C51      1.0000 0.96270  0.39830  0.32491  Biso   1.000  C
  C52      1.0000 0.03730  0.89830  0.17509  Biso   1.000  C
  C53      1.0000 0.95570  0.66130  0.61586  Biso   1.000  C
  C54      1.0000 0.04430  0.16130  0.88414  Biso   1.000  C
  C55      1.0000 0.04430  0.33870  0.38414  Biso   1.000  C
  C56      1.0000 0.95570  0.83870  0.11586  Biso   1.000  C
  C57      1.0000 0.82090  0.72990  0.60318  Biso   1.000  C
  C58      1.0000 0.17910  0.22990  0.89682  Biso   1.000  C
  C59      1.0000 0.17910  0.27010  0.39682  Biso   1.000  C
  C60      1.0000 0.82090  0.77010  0.10318  Biso   1.000  C
  C61      1.0000 0.73710  0.76300  0.54550  Biso   1.000  C
  C62      1.0000 0.26290  0.26300  0.95450  Biso   1.000  C
  C63      1.0000 0.26290  0.23700  0.45450  Biso   1.000  C
  C64      1.0000 0.73710  0.73700  0.04550  Biso   1.000  C
  H33      1.0000 0.64580  0.80640  0.53670  Biso   1.000  H
  H34      1.0000 0.35420  0.30640  0.96330  Biso   1.000  H
  H35      1.0000 0.35420  0.19360  0.46330  Biso   1.000  H
  H36      1.0000 0.64580  0.69360  0.03670  Biso   1.000  H
  C65      1.0000 0.78790  0.73200  0.50079  Biso   1.000  C
  C66      1.0000 0.21210  0.23200  0.99921  Biso   1.000  C
  C67      1.0000 0.21210  0.26800  0.49921  Biso   1.000  C
  C68      1.0000 0.78790  0.76800  0.00079  Biso   1.000  C
  H37      1.0000 0.73070  0.75390  0.46220  Biso   1.000  H
  H38      1.0000 0.26930  0.25390  0.03780  Biso   1.000  H
  H39      1.0000 0.26930  0.24610  0.53780  Biso   1.000  H
  H40      1.0000 0.73070  0.74610  0.96220  Biso   1.000  H
  C69      1.0000 0.92390  0.66870  0.51398  Biso   1.000  C
  C70      1.0000 0.07610  0.16870  0.98602  Biso   1.000  C
  C71      1.0000 0.07610  0.33130  0.48602  Biso   1.000  C
  C72      1.0000 0.92390  0.83130  0.01398  Biso   1.000  C
  H41      1.0000 0.95970  0.65030  0.48440  Biso   1.000  H
  H42      1.0000 0.04030  0.15030  0.01560  Biso   1.000  H
  H43      1.0000 0.04030  0.34970  0.51560  Biso   1.000  H
  H44      1.0000 0.95970  0.84970  0.98440  Biso   1.000  H
  C73      1.0000 0.00670  0.63260  0.57070  Biso   1.000  C
  C74      1.0000 0.99330  0.13260  0.92930  Biso   1.000  C
  C75      1.0000 0.99330  0.36740  0.42930  Biso   1.000  C
  C76      1.0000 0.00670  0.86740  0.07070  Biso   1.000  C
  H45      1.0000 0.09760  0.58870  0.57910  Biso   1.000  H
  H46      1.0000 0.90240  0.08870  0.92090  Biso   1.000  H
  H47      1.0000 0.90240  0.41130  0.42090  Biso   1.000  H
  H48      1.0000 0.09760  0.91130  0.07910  Biso   1.000  H
  C77      1.0000 0.76540  0.77990  0.64942  Biso   1.000  C
  C78      1.0000 0.23460  0.27990  0.85058  Biso   1.000  C
  C79      1.0000 0.23460  0.22010  0.35058  Biso   1.000  C
  C80      1.0000 0.76540  0.72010  0.14942  Biso   1.000  C
  F1       1.0000 0.64500  0.06570  0.92781  Biso   1.000  F
  F2       1.0000 0.35500  0.56570  0.57219  Biso   1.000  F
  F3       1.0000 0.35500  0.93430  0.07219  Biso   1.000  F
  F4       1.0000 0.64500  0.43430  0.42781  Biso   1.000  F
  F5       1.0000 0.76610  0.12850  0.04140  Biso   1.000  F
  F6       1.0000 0.23390  0.62850  0.45860  Biso   1.000  F
  F7       1.0000 0.23390  0.87150  0.95860  Biso   1.000  F
  F8       1.0000 0.76610  0.37150  0.54140  Biso   1.000  F
  F9       1.0000 0.82430  0.08810  0.55698  Biso   1.000  F
  F10      1.0000 0.17570  0.58810  0.94302  Biso   1.000  F
  F11      1.0000 0.17570  0.91190  0.44302  Biso   1.000  F
  F12      1.0000 0.82430  0.41190  0.05698  Biso   1.000  F
  F13      1.0000 0.27630  0.90260  0.55987  Biso   1.000  F
  F14      1.0000 0.72370  0.40260  0.94013  Biso   1.000  F
  F15      1.0000 0.72370  0.09740  0.44013  Biso   1.000  F
  F16      1.0000 0.27630  0.59740  0.05987  Biso   1.000  F
  N1       1.0000 0.29410  0.60020  0.81825  Biso   1.000  N
  N2       1.0000 0.70590  0.10020  0.68175  Biso   1.000  N
  N3       1.0000 0.70590  0.39980  0.18175  Biso   1.000  N
  N4       1.0000 0.29410  0.89980  0.31825  Biso   1.000  N
  N5       1.0000 0.44090  0.69980  0.90042  Biso   1.000  N
  N6       1.0000 0.55910  0.19980  0.59958  Biso   1.000  N
  N7       1.0000 0.55910  0.30020  0.09958  Biso   1.000  N
  N8       1.0000 0.44090  0.80020  0.40042  Biso   1.000  N
  N9       1.0000 0.35310  0.79210  0.86296  Biso   1.000  N
  N10      1.0000 0.64690  0.29210  0.63704  Biso   1.000  N
  N11      1.0000 0.64690  0.20790  0.13704  Biso   1.000  N
  N12      1.0000 0.35310  0.70790  0.36296  Biso   1.000  N
  N13      1.0000 0.19750  0.30690  0.70484  Biso   1.000  N
  N14      1.0000 0.80250  0.80690  0.79516  Biso   1.000  N
  N15      1.0000 0.80250  0.69310  0.29516  Biso   1.000  N
  N16      1.0000 0.19750  0.19310  0.20484  Biso   1.000  N
  N17      1.0000 0.24100  0.20080  0.63274  Biso   1.000  N
  N18      1.0000 0.75900  0.70080  0.86726  Biso   1.000  N
  N19      1.0000 0.75900  0.79920  0.36726  Biso   1.000  N
  N20      1.0000 0.24100  0.29920  0.13274  Biso   1.000  N
  N21      1.0000 0.15460  0.12440  0.65319  Biso   1.000  N
  N22      1.0000 0.84540  0.62440  0.84681  Biso   1.000  N
  N23      1.0000 0.84540  0.87560  0.34681  Biso   1.000  N
  N24      1.0000 0.15460  0.37560  0.15319  Biso   1.000  N
  O1       1.0000 0.96540  0.55900  0.70448  Biso   1.000  O
  O2       1.0000 0.03460  0.05900  0.79552  Biso   1.000  O
  O3       1.0000 0.03460  0.44100  0.29552  Biso   1.000  O
  O4       1.0000 0.96540  0.94100  0.20448  Biso   1.000  O
  O5       1.0000 0.17910  0.58720  0.69234  Biso   1.000  O
  O6       1.0000 0.82090  0.08720  0.80766  Biso   1.000  O
  O7       1.0000 0.82090  0.41280  0.30766  Biso   1.000  O
  O8       1.0000 0.17910  0.91280  0.19234  Biso   1.000  O
  O9       1.0000 0.86140  0.85030  0.68946  Biso   1.000  O
  O10      1.0000 0.13860  0.35030  0.81054  Biso   1.000  O
  O11      1.0000 0.13860  0.14970  0.31054  Biso   1.000  O
  O12      1.0000 0.86140  0.64970  0.18946  Biso   1.000  O
  O13      1.0000 0.63580  0.76110  0.64429  Biso   1.000  O
  O14      1.0000 0.36420  0.26110  0.85571  Biso   1.000  O
  O15      1.0000 0.36420  0.23890  0.35571  Biso   1.000  O
  O16      1.0000 0.63580  0.73890  0.14429  Biso   1.000  O
  O17      1.0000 0.43460  0.74380  0.70100  Biso   1.000  O
  O18      1.0000 0.56540  0.24380  0.79900  Biso   1.000  O
  O19      1.0000 0.56540  0.25620  0.29900  Biso   1.000  O
  O20      1.0000 0.43460  0.75620  0.20100  Biso   1.000  O
  H49      1.0000 0.37920  0.67490  0.68850  Biso   1.000  H
  H50      1.0000 0.62080  0.17490  0.81150  Biso   1.000  H
  H51      1.0000 0.62080  0.32510  0.31150  Biso   1.000  H
  H52      1.0000 0.37920  0.82510  0.18850  Biso   1.000  H
  H53      1.0000 0.52310  0.72090  0.70510  Biso   1.000  H
  H54      1.0000 0.47690  0.22090  0.79490  Biso   1.000  H
  H55      1.0000 0.47690  0.27910  0.29490  Biso   1.000  H
  H56      1.0000 0.52310  0.77910  0.20510  Biso   1.000  H
  O21      1.0000 0.41990  0.97540  0.75710  Biso   1.000  O
  O22      1.0000 0.58010  0.47540  0.74290  Biso   1.000  O
  O23      1.0000 0.58010  0.02460  0.24290  Biso   1.000  O
  O24      1.0000 0.41990  0.52460  0.25710  Biso   1.000  O
  H57      1.0000 0.38880  0.91540  0.73260  Biso   1.000  H
  H58      1.0000 0.61120  0.41540  0.76740  Biso   1.000  H
  H59      1.0000 0.61120  0.08460  0.26740  Biso   1.000  H
  H60      1.0000 0.38880  0.58460  0.23260  Biso   1.000  H
  H61      1.0000 0.50880  0.99630  0.76130  Biso   1.000  H
  H62      1.0000 0.49120  0.49630  0.73870  Biso   1.000  H
  H63      1.0000 0.49120  0.00370  0.23870  Biso   1.000  H
  H64      1.0000 0.50880  0.50370  0.26130  Biso   1.000  H
