data_image0
_cell_length_a       20.2203
_cell_length_b       20.2203
_cell_length_c       17.4841
_cell_angle_alpha    90
_cell_angle_beta     90
_cell_angle_gamma    90

_symmetry_space_group_name_H-M    "P 1"
_symmetry_int_tables_number       1

loop_
  _symmetry_equiv_pos_as_xyz
  'x, y, z'

loop_
  _atom_site_label
  _atom_site_occupancy
  _atom_site_fract_x
  _atom_site_fract_y
  _atom_site_fract_z
  _atom_site_thermal_displace_type
  _atom_site_B_iso_or_equiv
  _atom_site_type_symbol
  Cu1      1.0000 0.50000  0.50000  0.00000  Biso   1.000  Cu
  Cu2      1.0000 0.00000  0.50000  0.50000  Biso   1.000  Cu
  Cu3      1.0000 0.25000  0.75000  0.25000  Biso   1.000  Cu
  Cu4      1.0000 0.25000  0.25000  0.75000  Biso   1.000  Cu
  Cu5      1.0000 0.00000  0.00000  0.50000  Biso   1.000  Cu
  Cu6      1.0000 0.50000  0.00000  0.00000  Biso   1.000  Cu
  Cu7      1.0000 0.75000  0.25000  0.75000  Biso   1.000  Cu
  Cu8      1.0000 0.75000  0.75000  0.25000  Biso   1.000  Cu
  O1       1.0000 0.58701  0.46862  0.03301  Biso   1.000  O
  O2       1.0000 0.91299  0.53138  0.53301  Biso   1.000  O
  O3       1.0000 0.28138  0.83701  0.28301  Biso   1.000  O
  O4       1.0000 0.21862  0.16299  0.78301  Biso   1.000  O
  O5       1.0000 0.08701  0.96862  0.53301  Biso   1.000  O
  O6       1.0000 0.41299  0.03138  0.03301  Biso   1.000  O
  O7       1.0000 0.78138  0.33701  0.78301  Biso   1.000  O
  O8       1.0000 0.71862  0.66299  0.28301  Biso   1.000  O
  O9       1.0000 0.41299  0.53138  0.96699  Biso   1.000  O
  O10      1.0000 0.08701  0.46862  0.46699  Biso   1.000  O
  O11      1.0000 0.21862  0.66299  0.21699  Biso   1.000  O
  O12      1.0000 0.28138  0.33701  0.71699  Biso   1.000  O
  O13      1.0000 0.91299  0.03138  0.46699  Biso   1.000  O
  O14      1.0000 0.58701  0.96862  0.96699  Biso   1.000  O
  O15      1.0000 0.71862  0.16299  0.71699  Biso   1.000  O
  O16      1.0000 0.78138  0.83701  0.21699  Biso   1.000  O
  O17      1.0000 0.53078  0.38450  0.08060  Biso   1.000  O
  O18      1.0000 0.96922  0.61550  0.58060  Biso   1.000  O
  O19      1.0000 0.36550  0.78078  0.33060  Biso   1.000  O
  O20      1.0000 0.13450  0.21922  0.83060  Biso   1.000  O
  O21      1.0000 0.03078  0.88450  0.58060  Biso   1.000  O
  O22      1.0000 0.46922  0.11550  0.08060  Biso   1.000  O
  O23      1.0000 0.86550  0.28078  0.83060  Biso   1.000  O
  O24      1.0000 0.63450  0.71922  0.33060  Biso   1.000  O
  O25      1.0000 0.46922  0.61550  0.91940  Biso   1.000  O
  O26      1.0000 0.03078  0.38450  0.41940  Biso   1.000  O
  O27      1.0000 0.13450  0.71922  0.16940  Biso   1.000  O
  O28      1.0000 0.36550  0.28078  0.66940  Biso   1.000  O
  O29      1.0000 0.96922  0.11550  0.41940  Biso   1.000  O
  O30      1.0000 0.53078  0.88450  0.91940  Biso   1.000  O
  O31      1.0000 0.63450  0.21922  0.66940  Biso   1.000  O
  O32      1.0000 0.86550  0.78078  0.16940  Biso   1.000  O
  C1       1.0000 0.71730  0.45780  0.00880  Biso   1.000  C
  C2       1.0000 0.78270  0.54220  0.50880  Biso   1.000  C
  C3       1.0000 0.29220  0.96730  0.25880  Biso   1.000  C
  C4       1.0000 0.20780  0.03270  0.75880  Biso   1.000  C
  C5       1.0000 0.21730  0.95780  0.50880  Biso   1.000  C
  C6       1.0000 0.28270  0.04220  0.00880  Biso   1.000  C
  C7       1.0000 0.79220  0.46730  0.75880  Biso   1.000  C
  C8       1.0000 0.70780  0.53270  0.25880  Biso   1.000  C
  C9       1.0000 0.28270  0.54220  0.99120  Biso   1.000  C
  C10      1.0000 0.21730  0.45780  0.49120  Biso   1.000  C
  C11      1.0000 0.20780  0.53270  0.24120  Biso   1.000  C
  C12      1.0000 0.29220  0.46730  0.74120  Biso   1.000  C
  C13      1.0000 0.78270  0.04220  0.49120  Biso   1.000  C
  C14      1.0000 0.71730  0.95780  0.99120  Biso   1.000  C
  C15      1.0000 0.70780  0.03270  0.74120  Biso   1.000  C
  C16      1.0000 0.79220  0.96730  0.24120  Biso   1.000  C
  C17      1.0000 0.58330  0.41460  0.06910  Biso   1.000  C
  C18      1.0000 0.91670  0.58540  0.56910  Biso   1.000  C
  C19      1.0000 0.33540  0.83330  0.31910  Biso   1.000  C
  C20      1.0000 0.16460  0.16670  0.81910  Biso   1.000  C
  C21      1.0000 0.08330  0.91460  0.56910  Biso   1.000  C
  C22      1.0000 0.41670  0.08540  0.06910  Biso   1.000  C
  C23      1.0000 0.83540  0.33330  0.81910  Biso   1.000  C
  C24      1.0000 0.66460  0.66670  0.31910  Biso   1.000  C
  C25      1.0000 0.41670  0.58540  0.93090  Biso   1.000  C
  C26      1.0000 0.08330  0.41460  0.43090  Biso   1.000  C
  C27      1.0000 0.16460  0.66670  0.18090  Biso   1.000  C
  C28      1.0000 0.33540  0.33330  0.68090  Biso   1.000  C
  C29      1.0000 0.91670  0.08540  0.43090  Biso   1.000  C
  C30      1.0000 0.58330  0.91460  0.93090  Biso   1.000  C
  C31      1.0000 0.66460  0.16670  0.68090  Biso   1.000  C
  C32      1.0000 0.83540  0.83330  0.18090  Biso   1.000  C
  C33      1.0000 0.70900  0.40630  0.07090  Biso   1.000  C
  C34      1.0000 0.79100  0.59370  0.57090  Biso   1.000  C
  C35      1.0000 0.34370  0.95900  0.32090  Biso   1.000  C
  C36      1.0000 0.15630  0.04100  0.82090  Biso   1.000  C
  C37      1.0000 0.20900  0.90630  0.57090  Biso   1.000  C
  C38      1.0000 0.29100  0.09370  0.07090  Biso   1.000  C
  C39      1.0000 0.84370  0.45900  0.82090  Biso   1.000  C
  C40      1.0000 0.65630  0.54100  0.32090  Biso   1.000  C
  C41      1.0000 0.29100  0.59370  0.92910  Biso   1.000  C
  C42      1.0000 0.20900  0.40630  0.42910  Biso   1.000  C
  C43      1.0000 0.15630  0.54100  0.17910  Biso   1.000  C
  C44      1.0000 0.34370  0.45900  0.67910  Biso   1.000  C
  C45      1.0000 0.79100  0.09370  0.42910  Biso   1.000  C
  C46      1.0000 0.70900  0.90630  0.92910  Biso   1.000  C
  C47      1.0000 0.65630  0.04100  0.67910  Biso   1.000  C
  C48      1.0000 0.84370  0.95900  0.17910  Biso   1.000  C
  C49      1.0000 0.64770  0.38660  0.09920  Biso   1.000  C
  C50      1.0000 0.85230  0.61340  0.59920  Biso   1.000  C
  C51      1.0000 0.36340  0.89770  0.34920  Biso   1.000  C
  C52      1.0000 0.13660  0.10230  0.84920  Biso   1.000  C
  C53      1.0000 0.14770  0.88660  0.59920  Biso   1.000  C
  C54      1.0000 0.35230  0.11340  0.09920  Biso   1.000  C
  C55      1.0000 0.86340  0.39770  0.84920  Biso   1.000  C
  C56      1.0000 0.63660  0.60230  0.34920  Biso   1.000  C
  C57      1.0000 0.35230  0.61340  0.90080  Biso   1.000  C
  C58      1.0000 0.14770  0.38660  0.40080  Biso   1.000  C
  C59      1.0000 0.13660  0.60230  0.15080  Biso   1.000  C
  C60      1.0000 0.36340  0.39770  0.65080  Biso   1.000  C
  C61      1.0000 0.85230  0.11340  0.40080  Biso   1.000  C
  C62      1.0000 0.64770  0.88660  0.90080  Biso   1.000  C
  C63      1.0000 0.63660  0.10230  0.65080  Biso   1.000  C
  C64      1.0000 0.86340  0.89770  0.15080  Biso   1.000  C
  C65      1.0000 0.76570  0.37620  0.09820  Biso   1.000  C
  C66      1.0000 0.73430  0.62380  0.59820  Biso   1.000  C
  C67      1.0000 0.37380  0.01570  0.34820  Biso   1.000  C
  C68      1.0000 0.12620  0.98430  0.84820  Biso   1.000  C
  C69      1.0000 0.26570  0.87620  0.59820  Biso   1.000  C
  C70      1.0000 0.23430  0.12380  0.09820  Biso   1.000  C
  C71      1.0000 0.87380  0.51570  0.84820  Biso   1.000  C
  C72      1.0000 0.62620  0.48430  0.34820  Biso   1.000  C
  C73      1.0000 0.23430  0.62380  0.90180  Biso   1.000  C
  C74      1.0000 0.26570  0.37620  0.40180  Biso   1.000  C
  C75      1.0000 0.12620  0.48430  0.15180  Biso   1.000  C
  C76      1.0000 0.37380  0.51570  0.65180  Biso   1.000  C
  C77      1.0000 0.73430  0.12380  0.40180  Biso   1.000  C
  C78      1.0000 0.76570  0.87620  0.90180  Biso   1.000  C
  C79      1.0000 0.62620  0.98430  0.65180  Biso   1.000  C
  C80      1.0000 0.87380  0.01570  0.15180  Biso   1.000  C
  H1       1.0000 0.80650  0.38730  0.07740  Biso   1.000  H
  H2       1.0000 0.69350  0.61270  0.57740  Biso   1.000  H
  H3       1.0000 0.36270  0.05650  0.32740  Biso   1.000  H
  H4       1.0000 0.13730  0.94350  0.82740  Biso   1.000  H
  H5       1.0000 0.30650  0.88730  0.57740  Biso   1.000  H
  H6       1.0000 0.19350  0.11270  0.07740  Biso   1.000  H
  H7       1.0000 0.86270  0.55650  0.82740  Biso   1.000  H
  H8       1.0000 0.63730  0.44350  0.32740  Biso   1.000  H
  H9       1.0000 0.19350  0.61270  0.92260  Biso   1.000  H
  H10      1.0000 0.30650  0.38730  0.42260  Biso   1.000  H
  H11      1.0000 0.13730  0.44350  0.17260  Biso   1.000  H
  H12      1.0000 0.36270  0.55650  0.67260  Biso   1.000  H
  H13      1.0000 0.69350  0.11270  0.42260  Biso   1.000  H
  H14      1.0000 0.80650  0.88730  0.92260  Biso   1.000  H
  H15      1.0000 0.63730  0.94350  0.67260  Biso   1.000  H
  H16      1.0000 0.86270  0.05650  0.17260  Biso   1.000  H
  C81      1.0000 0.64510  0.33950  0.15750  Biso   1.000  C
  C82      1.0000 0.85490  0.66050  0.65750  Biso   1.000  C
  C83      1.0000 0.41050  0.89510  0.40750  Biso   1.000  C
  C84      1.0000 0.08950  0.10490  0.90750  Biso   1.000  C
  C85      1.0000 0.14510  0.83950  0.65750  Biso   1.000  C
  C86      1.0000 0.35490  0.16050  0.15750  Biso   1.000  C
  C87      1.0000 0.91050  0.39510  0.90750  Biso   1.000  C
  C88      1.0000 0.58950  0.60490  0.40750  Biso   1.000  C
  C89      1.0000 0.35490  0.66050  0.84250  Biso   1.000  C
  C90      1.0000 0.14510  0.33950  0.34250  Biso   1.000  C
  C91      1.0000 0.08950  0.60490  0.09250  Biso   1.000  C
  C92      1.0000 0.41050  0.39510  0.59250  Biso   1.000  C
  C93      1.0000 0.85490  0.16050  0.34250  Biso   1.000  C
  C94      1.0000 0.64510  0.83950  0.84250  Biso   1.000  C
  C95      1.0000 0.58950  0.10490  0.59250  Biso   1.000  C
  C96      1.0000 0.91050  0.89510  0.09250  Biso   1.000  C
  H17      1.0000 0.60450  0.32650  0.17740  Biso   1.000  H
  H18      1.0000 0.89550  0.67350  0.67740  Biso   1.000  H
  H19      1.0000 0.42350  0.85450  0.42740  Biso   1.000  H
  H20      1.0000 0.07650  0.14550  0.92740  Biso   1.000  H
  H21      1.0000 0.10450  0.82650  0.67740  Biso   1.000  H
  H22      1.0000 0.39550  0.17350  0.17740  Biso   1.000  H
  H23      1.0000 0.92350  0.35450  0.92740  Biso   1.000  H
  H24      1.0000 0.57650  0.64550  0.42740  Biso   1.000  H
  H25      1.0000 0.39550  0.67350  0.82260  Biso   1.000  H
  H26      1.0000 0.10450  0.32650  0.32260  Biso   1.000  H
  H27      1.0000 0.07650  0.64550  0.07260  Biso   1.000  H
  H28      1.0000 0.42350  0.35450  0.57260  Biso   1.000  H
  H29      1.0000 0.89550  0.17350  0.32260  Biso   1.000  H
  H30      1.0000 0.60450  0.82650  0.82260  Biso   1.000  H
  H31      1.0000 0.57650  0.14550  0.57260  Biso   1.000  H
  H32      1.0000 0.92350  0.85450  0.07260  Biso   1.000  H
  C97      1.0000 0.70290  0.31230  0.18550  Biso   1.000  C
  C98      1.0000 0.79710  0.68770  0.68550  Biso   1.000  C
  C99      1.0000 0.43770  0.95290  0.43550  Biso   1.000  C
  C100     1.0000 0.06230  0.04710  0.93550  Biso   1.000  C
  C101     1.0000 0.20290  0.81230  0.68550  Biso   1.000  C
  C102     1.0000 0.29710  0.18770  0.18550  Biso   1.000  C
  C103     1.0000 0.93770  0.45290  0.93550  Biso   1.000  C
  C104     1.0000 0.56230  0.54710  0.43550  Biso   1.000  C
  C105     1.0000 0.29710  0.68770  0.81450  Biso   1.000  C
  C106     1.0000 0.20290  0.31230  0.31450  Biso   1.000  C
  C107     1.0000 0.06230  0.54710  0.06450  Biso   1.000  C
  C108     1.0000 0.43770  0.45290  0.56450  Biso   1.000  C
  C109     1.0000 0.79710  0.18770  0.31450  Biso   1.000  C
  C110     1.0000 0.70290  0.81230  0.81450  Biso   1.000  C
  C111     1.0000 0.56230  0.04710  0.56450  Biso   1.000  C
  C112     1.0000 0.93770  0.95290  0.06450  Biso   1.000  C
  H33      1.0000 0.70120  0.28160  0.22510  Biso   1.000  H
  H34      1.0000 0.79880  0.71840  0.72510  Biso   1.000  H
  H35      1.0000 0.46840  0.95120  0.47510  Biso   1.000  H
  H36      1.0000 0.03160  0.04880  0.97510  Biso   1.000  H
  H37      1.0000 0.20120  0.78160  0.72510  Biso   1.000  H
  H38      1.0000 0.29880  0.21840  0.22510  Biso   1.000  H
  H39      1.0000 0.96840  0.45120  0.97510  Biso   1.000  H
  H40      1.0000 0.53160  0.54880  0.47510  Biso   1.000  H
  H41      1.0000 0.29880  0.71840  0.77490  Biso   1.000  H
  H42      1.0000 0.20120  0.28160  0.27490  Biso   1.000  H
  H43      1.0000 0.03160  0.54880  0.02490  Biso   1.000  H
  H44      1.0000 0.46840  0.45120  0.52490  Biso   1.000  H
  H45      1.0000 0.79880  0.21840  0.27490  Biso   1.000  H
  H46      1.0000 0.70120  0.78160  0.77490  Biso   1.000  H
  H47      1.0000 0.53160  0.04880  0.52490  Biso   1.000  H
  H48      1.0000 0.96840  0.95120  0.02490  Biso   1.000  H
  C113     1.0000 0.76260  0.33050  0.15510  Biso   1.000  C
  C114     1.0000 0.73740  0.66950  0.65510  Biso   1.000  C
  C115     1.0000 0.41950  0.01260  0.40510  Biso   1.000  C
  C116     1.0000 0.08050  0.98740  0.90510  Biso   1.000  C
  C117     1.0000 0.26260  0.83050  0.65510  Biso   1.000  C
  C118     1.0000 0.23740  0.16950  0.15510  Biso   1.000  C
  C119     1.0000 0.91950  0.51260  0.90510  Biso   1.000  C
  C120     1.0000 0.58050  0.48740  0.40510  Biso   1.000  C
  C121     1.0000 0.23740  0.66950  0.84490  Biso   1.000  C
  C122     1.0000 0.26260  0.33050  0.34490  Biso   1.000  C
  C123     1.0000 0.08050  0.48740  0.09490  Biso   1.000  C
  C124     1.0000 0.41950  0.51260  0.59490  Biso   1.000  C
  C125     1.0000 0.73740  0.16950  0.34490  Biso   1.000  C
  C126     1.0000 0.76260  0.83050  0.84490  Biso   1.000  C
  C127     1.0000 0.58050  0.98740  0.59490  Biso   1.000  C
  C128     1.0000 0.91950  0.01260  0.09490  Biso   1.000  C
  H49      1.0000 0.80140  0.31150  0.17350  Biso   1.000  H
  H50      1.0000 0.69860  0.68850  0.67350  Biso   1.000  H
  H51      1.0000 0.43850  0.05140  0.42350  Biso   1.000  H
  H52      1.0000 0.06150  0.94860  0.92350  Biso   1.000  H
  H53      1.0000 0.30140  0.81150  0.67350  Biso   1.000  H
  H54      1.0000 0.19860  0.18850  0.17350  Biso   1.000  H
  H55      1.0000 0.93850  0.55140  0.92350  Biso   1.000  H
  H56      1.0000 0.56150  0.44860  0.42350  Biso   1.000  H
  H57      1.0000 0.19860  0.68850  0.82650  Biso   1.000  H
  H58      1.0000 0.30140  0.31150  0.32650  Biso   1.000  H
  H59      1.0000 0.06150  0.44860  0.07650  Biso   1.000  H
  H60      1.0000 0.43850  0.55140  0.57650  Biso   1.000  H
  H61      1.0000 0.69860  0.18850  0.32650  Biso   1.000  H
  H62      1.0000 0.80140  0.81150  0.82650  Biso   1.000  H
  H63      1.0000 0.56150  0.94860  0.57650  Biso   1.000  H
  H64      1.0000 0.93850  0.05140  0.07650  Biso   1.000  H
  C129     1.0000 0.68050  0.67960  0.12570  Biso   1.000  C
  C130     1.0000 0.81950  0.32040  0.62570  Biso   1.000  C
  C131     1.0000 0.07040  0.93050  0.37570  Biso   1.000  C
  C132     1.0000 0.42960  0.06950  0.87570  Biso   1.000  C
  C133     1.0000 0.18050  0.17960  0.62570  Biso   1.000  C
  C134     1.0000 0.31950  0.82040  0.12570  Biso   1.000  C
  C135     1.0000 0.57040  0.43050  0.87570  Biso   1.000  C
  C136     1.0000 0.92960  0.56950  0.37570  Biso   1.000  C
  C137     1.0000 0.31950  0.32040  0.87430  Biso   1.000  C
  C138     1.0000 0.18050  0.67960  0.37430  Biso   1.000  C
  C139     1.0000 0.42960  0.56950  0.12430  Biso   1.000  C
  C140     1.0000 0.07040  0.43050  0.62430  Biso   1.000  C
  C141     1.0000 0.81950  0.82040  0.37430  Biso   1.000  C
  C142     1.0000 0.68050  0.17960  0.87430  Biso   1.000  C
  C143     1.0000 0.92960  0.06950  0.62430  Biso   1.000  C
  C144     1.0000 0.57040  0.93050  0.12430  Biso   1.000  C
  H65      1.0000 0.67570  0.64220  0.15630  Biso   1.000  H
  H66      1.0000 0.82430  0.35780  0.65630  Biso   1.000  H
  H67      1.0000 0.10780  0.92570  0.40630  Biso   1.000  H
  H68      1.0000 0.39220  0.07430  0.90630  Biso   1.000  H
  H69      1.0000 0.17570  0.14220  0.65630  Biso   1.000  H
  H70      1.0000 0.32430  0.85780  0.15630  Biso   1.000  H
  H71      1.0000 0.60780  0.42570  0.90630  Biso   1.000  H
  H72      1.0000 0.89220  0.57430  0.40630  Biso   1.000  H
  H73      1.0000 0.32430  0.35780  0.84370  Biso   1.000  H
  H74      1.0000 0.17570  0.64220  0.34370  Biso   1.000  H
  H75      1.0000 0.39220  0.57430  0.09370  Biso   1.000  H
  H76      1.0000 0.10780  0.42570  0.59370  Biso   1.000  H
  H77      1.0000 0.82430  0.85780  0.34370  Biso   1.000  H
  H78      1.0000 0.67570  0.14220  0.84370  Biso   1.000  H
  H79      1.0000 0.89220  0.07430  0.59370  Biso   1.000  H
  H80      1.0000 0.60780  0.92570  0.09370  Biso   1.000  H
  C145     1.0000 0.70420  0.77780  0.08580  Biso   1.000  C
  C146     1.0000 0.79580  0.22220  0.58580  Biso   1.000  C
  C147     1.0000 0.97220  0.95420  0.33580  Biso   1.000  C
  C148     1.0000 0.52780  0.04580  0.83580  Biso   1.000  C
  C149     1.0000 0.20420  0.27780  0.58580  Biso   1.000  C
  C150     1.0000 0.29580  0.72220  0.08580  Biso   1.000  C
  C151     1.0000 0.47220  0.45420  0.83580  Biso   1.000  C
  C152     1.0000 0.02780  0.54580  0.33580  Biso   1.000  C
  C153     1.0000 0.29580  0.22220  0.91420  Biso   1.000  C
  C154     1.0000 0.20420  0.77780  0.41420  Biso   1.000  C
  C155     1.0000 0.52780  0.54580  0.16420  Biso   1.000  C
  C156     1.0000 0.97220  0.45420  0.66420  Biso   1.000  C
  C157     1.0000 0.79580  0.72220  0.41420  Biso   1.000  C
  C158     1.0000 0.70420  0.27780  0.91420  Biso   1.000  C
  C159     1.0000 0.02780  0.04580  0.66420  Biso   1.000  C
  C160     1.0000 0.47220  0.95420  0.16420  Biso   1.000  C
  H81      1.0000 0.71930  0.82120  0.08470  Biso   1.000  H
  H82      1.0000 0.78070  0.17880  0.58470  Biso   1.000  H
  H83      1.0000 0.92880  0.96930  0.33470  Biso   1.000  H
  H84      1.0000 0.57120  0.03070  0.83470  Biso   1.000  H
  H85      1.0000 0.21930  0.32120  0.58470  Biso   1.000  H
  H86      1.0000 0.28070  0.67880  0.08470  Biso   1.000  H
  H87      1.0000 0.42880  0.46930  0.83470  Biso   1.000  H
  H88      1.0000 0.07120  0.53070  0.33470  Biso   1.000  H
  H89      1.0000 0.28070  0.17880  0.91530  Biso   1.000  H
  H90      1.0000 0.21930  0.82120  0.41530  Biso   1.000  H
  H91      1.0000 0.57120  0.53070  0.16530  Biso   1.000  H
  H92      1.0000 0.92880  0.46930  0.66530  Biso   1.000  H
  H93      1.0000 0.78070  0.67880  0.41530  Biso   1.000  H
  H94      1.0000 0.71930  0.32120  0.91530  Biso   1.000  H
  H95      1.0000 0.07120  0.03070  0.66530  Biso   1.000  H
  H96      1.0000 0.42880  0.96930  0.16530  Biso   1.000  H
  C161     1.0000 0.67500  0.74610  0.02810  Biso   1.000  C
  C162     1.0000 0.82500  0.25390  0.52810  Biso   1.000  C
  C163     1.0000 0.00390  0.92500  0.27810  Biso   1.000  C
  C164     1.0000 0.49610  0.07500  0.77810  Biso   1.000  C
  C165     1.0000 0.17500  0.24610  0.52810  Biso   1.000  C
  C166     1.0000 0.32500  0.75390  0.02810  Biso   1.000  C
  C167     1.0000 0.50390  0.42500  0.77810  Biso   1.000  C
  C168     1.0000 0.99610  0.57500  0.27810  Biso   1.000  C
  C169     1.0000 0.32500  0.25390  0.97190  Biso   1.000  C
  C170     1.0000 0.17500  0.74610  0.47190  Biso   1.000  C
  C171     1.0000 0.49610  0.57500  0.22190  Biso   1.000  C
  C172     1.0000 0.00390  0.42500  0.72190  Biso   1.000  C
  C173     1.0000 0.82500  0.75390  0.47190  Biso   1.000  C
  C174     1.0000 0.67500  0.24610  0.97190  Biso   1.000  C
  C175     1.0000 0.99610  0.07500  0.72190  Biso   1.000  C
  C176     1.0000 0.50390  0.92500  0.22190  Biso   1.000  C
  H97      1.0000 0.66650  0.76330  0.97970  Biso   1.000  H
  H98      1.0000 0.83350  0.23670  0.47970  Biso   1.000  H
  H99      1.0000 0.98670  0.91650  0.22970  Biso   1.000  H
  H100     1.0000 0.51330  0.08350  0.72970  Biso   1.000  H
  H101     1.0000 0.16650  0.26330  0.47970  Biso   1.000  H
  H102     1.0000 0.33350  0.73670  0.97970  Biso   1.000  H
  H103     1.0000 0.48670  0.41650  0.72970  Biso   1.000  H
  H104     1.0000 0.01330  0.58350  0.22970  Biso   1.000  H
  H105     1.0000 0.33350  0.23670  0.02030  Biso   1.000  H
  H106     1.0000 0.16650  0.76330  0.52030  Biso   1.000  H
  H107     1.0000 0.51330  0.58350  0.27030  Biso   1.000  H
  H108     1.0000 0.98670  0.41650  0.77030  Biso   1.000  H
  H109     1.0000 0.83350  0.73670  0.52030  Biso   1.000  H
  H110     1.0000 0.66650  0.26330  0.02030  Biso   1.000  H
  H111     1.0000 0.01330  0.08350  0.77030  Biso   1.000  H
  H112     1.0000 0.48670  0.91650  0.27030  Biso   1.000  H
  C177     1.0000 0.67750  0.60160  0.94910  Biso   1.000  C
  C178     1.0000 0.82250  0.39840  0.44910  Biso   1.000  C
  C179     1.0000 0.14840  0.92750  0.19910  Biso   1.000  C
  C180     1.0000 0.35160  0.07250  0.69910  Biso   1.000  C
  C181     1.0000 0.17750  0.10160  0.44910  Biso   1.000  C
  C182     1.0000 0.32250  0.89840  0.94910  Biso   1.000  C
  C183     1.0000 0.64840  0.42750  0.69910  Biso   1.000  C
  C184     1.0000 0.85160  0.57250  0.19910  Biso   1.000  C
  C185     1.0000 0.32250  0.39840  0.05090  Biso   1.000  C
  C186     1.0000 0.17750  0.60160  0.55090  Biso   1.000  C
  C187     1.0000 0.35160  0.57250  0.30090  Biso   1.000  C
  C188     1.0000 0.14840  0.42750  0.80090  Biso   1.000  C
  C189     1.0000 0.82250  0.89840  0.55090  Biso   1.000  C
  C190     1.0000 0.67750  0.10160  0.05090  Biso   1.000  C
  C191     1.0000 0.85160  0.07250  0.80090  Biso   1.000  C
  C192     1.0000 0.64840  0.92750  0.30090  Biso   1.000  C
  H113     1.0000 0.68830  0.63640  0.91290  Biso   1.000  H
  H114     1.0000 0.81170  0.36360  0.41290  Biso   1.000  H
  H115     1.0000 0.11360  0.93830  0.16290  Biso   1.000  H
  H116     1.0000 0.38640  0.06170  0.66290  Biso   1.000  H
  H117     1.0000 0.18830  0.13640  0.41290  Biso   1.000  H
  H118     1.0000 0.31170  0.86360  0.91290  Biso   1.000  H
  H119     1.0000 0.61360  0.43830  0.66290  Biso   1.000  H
  H120     1.0000 0.88640  0.56170  0.16290  Biso   1.000  H
  H121     1.0000 0.31170  0.36360  0.08710  Biso   1.000  H
  H122     1.0000 0.18830  0.63640  0.58710  Biso   1.000  H
  H123     1.0000 0.38640  0.56170  0.33710  Biso   1.000  H
  H124     1.0000 0.11360  0.43830  0.83710  Biso   1.000  H
  H125     1.0000 0.81170  0.86360  0.58710  Biso   1.000  H
  H126     1.0000 0.68830  0.13640  0.08710  Biso   1.000  H
  H127     1.0000 0.88640  0.06170  0.83710  Biso   1.000  H
  H128     1.0000 0.61360  0.93830  0.33710  Biso   1.000  H
  H129     1.0000 0.65520  0.56670  0.92110  Biso   1.000  H
  H130     1.0000 0.84480  0.43330  0.42110  Biso   1.000  H
  H131     1.0000 0.18330  0.90520  0.17110  Biso   1.000  H
  H132     1.0000 0.31670  0.09480  0.67110  Biso   1.000  H
  H133     1.0000 0.15520  0.06670  0.42110  Biso   1.000  H
  H134     1.0000 0.34480  0.93330  0.92110  Biso   1.000  H
  H135     1.0000 0.68330  0.40520  0.67110  Biso   1.000  H
  H136     1.0000 0.81670  0.59480  0.17110  Biso   1.000  H
  H137     1.0000 0.34480  0.43330  0.07890  Biso   1.000  H
  H138     1.0000 0.15520  0.56670  0.57890  Biso   1.000  H
  H139     1.0000 0.31670  0.59480  0.32890  Biso   1.000  H
  H140     1.0000 0.18330  0.40520  0.82890  Biso   1.000  H
  H141     1.0000 0.84480  0.93330  0.57890  Biso   1.000  H
  H142     1.0000 0.65520  0.06670  0.07890  Biso   1.000  H
  H143     1.0000 0.81670  0.09480  0.82890  Biso   1.000  H
  H144     1.0000 0.68330  0.90520  0.32890  Biso   1.000  H
  C193     1.0000 0.63020  0.62940  0.00870  Biso   1.000  C
  C194     1.0000 0.86980  0.37060  0.50870  Biso   1.000  C
  C195     1.0000 0.12060  0.88020  0.25870  Biso   1.000  C
  C196     1.0000 0.37940  0.11980  0.75870  Biso   1.000  C
  C197     1.0000 0.13020  0.12940  0.50870  Biso   1.000  C
  C198     1.0000 0.36980  0.87060  0.00870  Biso   1.000  C
  C199     1.0000 0.62060  0.38020  0.75870  Biso   1.000  C
  C200     1.0000 0.87940  0.61980  0.25870  Biso   1.000  C
  C201     1.0000 0.36980  0.37060  0.99130  Biso   1.000  C
  C202     1.0000 0.13020  0.62940  0.49130  Biso   1.000  C
  C203     1.0000 0.37940  0.61980  0.24130  Biso   1.000  C
  C204     1.0000 0.12060  0.38020  0.74130  Biso   1.000  C
  C205     1.0000 0.86980  0.87060  0.49130  Biso   1.000  C
  C206     1.0000 0.63020  0.12940  0.99130  Biso   1.000  C
  C207     1.0000 0.87940  0.11980  0.74130  Biso   1.000  C
  C208     1.0000 0.62060  0.88020  0.24130  Biso   1.000  C
  H145     1.0000 0.61740  0.59440  0.04360  Biso   1.000  H
  H146     1.0000 0.88260  0.40560  0.54360  Biso   1.000  H
  H147     1.0000 0.15560  0.86740  0.29360  Biso   1.000  H
  H148     1.0000 0.34440  0.13260  0.79360  Biso   1.000  H
  H149     1.0000 0.11740  0.09440  0.54360  Biso   1.000  H
  H150     1.0000 0.38260  0.90560  0.04360  Biso   1.000  H
  H151     1.0000 0.65560  0.36740  0.79360  Biso   1.000  H
  H152     1.0000 0.84440  0.63260  0.29360  Biso   1.000  H
  H153     1.0000 0.38260  0.40560  0.95640  Biso   1.000  H
  H154     1.0000 0.11740  0.59440  0.45640  Biso   1.000  H
  H155     1.0000 0.34440  0.63260  0.20640  Biso   1.000  H
  H156     1.0000 0.15560  0.36740  0.70640  Biso   1.000  H
  H157     1.0000 0.88260  0.90560  0.45640  Biso   1.000  H
  H158     1.0000 0.61740  0.09440  0.95640  Biso   1.000  H
  H159     1.0000 0.84440  0.13260  0.70640  Biso   1.000  H
  H160     1.0000 0.65560  0.86740  0.20640  Biso   1.000  H
  H161     1.0000 0.59050  0.64520  0.98340  Biso   1.000  H
  H162     1.0000 0.90950  0.35480  0.48340  Biso   1.000  H
  H163     1.0000 0.10480  0.84050  0.23340  Biso   1.000  H
  H164     1.0000 0.39520  0.15950  0.73340  Biso   1.000  H
  H165     1.0000 0.09050  0.14520  0.48340  Biso   1.000  H
  H166     1.0000 0.40950  0.85480  0.98340  Biso   1.000  H
  H167     1.0000 0.60480  0.34050  0.73340  Biso   1.000  H
  H168     1.0000 0.89520  0.65950  0.23340  Biso   1.000  H
  H169     1.0000 0.40950  0.35480  0.01660  Biso   1.000  H
  H170     1.0000 0.09050  0.64520  0.51660  Biso   1.000  H
  H171     1.0000 0.39520  0.65950  0.26660  Biso   1.000  H
  H172     1.0000 0.10480  0.34050  0.76660  Biso   1.000  H
  H173     1.0000 0.90950  0.85480  0.51660  Biso   1.000  H
  H174     1.0000 0.59050  0.14520  0.01660  Biso   1.000  H
  H175     1.0000 0.89520  0.15950  0.76660  Biso   1.000  H
  H176     1.0000 0.60480  0.84050  0.26660  Biso   1.000  H
  N1       1.0000 0.70830  0.73501  0.14800  Biso   1.000  N
  N2       1.0000 0.79170  0.26499  0.64800  Biso   1.000  N
  N3       1.0000 0.01499  0.95830  0.39800  Biso   1.000  N
  N4       1.0000 0.48501  0.04170  0.89800  Biso   1.000  N
  N5       1.0000 0.20830  0.23501  0.64800  Biso   1.000  N
  N6       1.0000 0.29170  0.76499  0.14800  Biso   1.000  N
  N7       1.0000 0.51499  0.45830  0.89800  Biso   1.000  N
  N8       1.0000 0.98501  0.54170  0.39800  Biso   1.000  N
  N9       1.0000 0.29170  0.26499  0.85200  Biso   1.000  N
  N10      1.0000 0.20830  0.73501  0.35200  Biso   1.000  N
  N11      1.0000 0.48501  0.54170  0.10200  Biso   1.000  N
  N12      1.0000 0.01499  0.45830  0.60200  Biso   1.000  N
  N13      1.0000 0.79170  0.76499  0.35200  Biso   1.000  N
  N14      1.0000 0.70830  0.23501  0.85200  Biso   1.000  N
  N15      1.0000 0.98501  0.04170  0.60200  Biso   1.000  N
  N16      1.0000 0.51499  0.95830  0.10200  Biso   1.000  N
  N17      1.0000 0.65970  0.68405  0.05270  Biso   1.000  N
  N18      1.0000 0.84030  0.31595  0.55270  Biso   1.000  N
  N19      1.0000 0.06595  0.90970  0.30270  Biso   1.000  N
  N20      1.0000 0.43405  0.09030  0.80270  Biso   1.000  N
  N21      1.0000 0.15970  0.18405  0.55270  Biso   1.000  N
  N22      1.0000 0.34030  0.81595  0.05270  Biso   1.000  N
  N23      1.0000 0.56595  0.40970  0.80270  Biso   1.000  N
  N24      1.0000 0.93405  0.59030  0.30270  Biso   1.000  N
  N25      1.0000 0.34030  0.31595  0.94730  Biso   1.000  N
  N26      1.0000 0.15970  0.68405  0.44730  Biso   1.000  N
  N27      1.0000 0.43405  0.59030  0.19730  Biso   1.000  N
  N28      1.0000 0.06595  0.40970  0.69730  Biso   1.000  N
  N29      1.0000 0.84030  0.81595  0.44730  Biso   1.000  N
  N30      1.0000 0.65970  0.18405  0.94730  Biso   1.000  N
  N31      1.0000 0.93405  0.09030  0.69730  Biso   1.000  N
  N32      1.0000 0.56595  0.90970  0.19730  Biso   1.000  N
  O33      1.0000 0.71618  0.44238  0.94065  Biso   1.000  O
  O34      1.0000 0.78382  0.55762  0.44065  Biso   1.000  O
  O35      1.0000 0.30762  0.96618  0.19065  Biso   1.000  O
  O36      1.0000 0.19238  0.03382  0.69065  Biso   1.000  O
  O37      1.0000 0.21618  0.94238  0.44065  Biso   1.000  O
  O38      1.0000 0.28382  0.05762  0.94065  Biso   1.000  O
  O39      1.0000 0.80762  0.46618  0.69065  Biso   1.000  O
  O40      1.0000 0.69238  0.53382  0.19065  Biso   1.000  O
  O41      1.0000 0.28382  0.55762  0.05935  Biso   1.000  O
  O42      1.0000 0.21618  0.44238  0.55935  Biso   1.000  O
  O43      1.0000 0.19238  0.53382  0.30935  Biso   1.000  O
  O44      1.0000 0.30762  0.46618  0.80935  Biso   1.000  O
  O45      1.0000 0.78382  0.05762  0.55935  Biso   1.000  O
  O46      1.0000 0.71618  0.94238  0.05935  Biso   1.000  O
  O47      1.0000 0.69238  0.03382  0.80935  Biso   1.000  O
  O48      1.0000 0.80762  0.96618  0.30935  Biso   1.000  O
  C209     1.0000 0.74120  0.57420  0.98230  Biso   1.000  C
  C210     1.0000 0.75880  0.42580  0.48230  Biso   1.000  C
  C211     1.0000 0.17580  0.99120  0.23230  Biso   1.000  C
  C212     1.0000 0.32420  0.00880  0.73230  Biso   1.000  C
  C213     1.0000 0.24120  0.07420  0.48230  Biso   1.000  C
  C214     1.0000 0.25880  0.92580  0.98230  Biso   1.000  C
  C215     1.0000 0.67580  0.49120  0.73230  Biso   1.000  C
  C216     1.0000 0.82420  0.50880  0.23230  Biso   1.000  C
  C217     1.0000 0.25880  0.42580  0.01770  Biso   1.000  C
  C218     1.0000 0.24120  0.57420  0.51770  Biso   1.000  C
  C219     1.0000 0.32420  0.50880  0.26770  Biso   1.000  C
  C220     1.0000 0.17580  0.49120  0.76770  Biso   1.000  C
  C221     1.0000 0.75880  0.92580  0.51770  Biso   1.000  C
  C222     1.0000 0.74120  0.07420  0.01770  Biso   1.000  C
  C223     1.0000 0.82420  0.00880  0.76770  Biso   1.000  C
  C224     1.0000 0.67580  0.99120  0.26770  Biso   1.000  C
  H177     1.0000 0.76950  0.56000  0.94070  Biso   1.000  H
  H178     1.0000 0.73050  0.44000  0.44070  Biso   1.000  H
  H179     1.0000 0.19000  0.01950  0.19070  Biso   1.000  H
  H180     1.0000 0.31000  0.98050  0.69070  Biso   1.000  H
  H181     1.0000 0.26950  0.06000  0.44070  Biso   1.000  H
  H182     1.0000 0.23050  0.94000  0.94070  Biso   1.000  H
  H183     1.0000 0.69000  0.51950  0.69070  Biso   1.000  H
  H184     1.0000 0.81000  0.48050  0.19070  Biso   1.000  H
  H185     1.0000 0.23050  0.44000  0.05930  Biso   1.000  H
  H186     1.0000 0.26950  0.56000  0.55930  Biso   1.000  H
  H187     1.0000 0.31000  0.48050  0.30930  Biso   1.000  H
  H188     1.0000 0.19000  0.51950  0.80930  Biso   1.000  H
  H189     1.0000 0.73050  0.94000  0.55930  Biso   1.000  H
  H190     1.0000 0.76950  0.06000  0.05930  Biso   1.000  H
  H191     1.0000 0.81000  0.98050  0.80930  Biso   1.000  H
  H192     1.0000 0.69000  0.01950  0.30930  Biso   1.000  H
  H193     1.0000 0.76390  0.60930  0.00950  Biso   1.000  H
  H194     1.0000 0.73610  0.39070  0.50950  Biso   1.000  H
  H195     1.0000 0.14070  0.01390  0.25950  Biso   1.000  H
  H196     1.0000 0.35930  0.98610  0.75950  Biso   1.000  H
  H197     1.0000 0.26390  0.10930  0.50950  Biso   1.000  H
  H198     1.0000 0.23610  0.89070  0.00950  Biso   1.000  H
  H199     1.0000 0.64070  0.51390  0.75950  Biso   1.000  H
  H200     1.0000 0.85930  0.48610  0.25950  Biso   1.000  H
  H201     1.0000 0.23610  0.39070  0.99050  Biso   1.000  H
  H202     1.0000 0.26390  0.60930  0.49050  Biso   1.000  H
  H203     1.0000 0.35930  0.48610  0.24050  Biso   1.000  H
  H204     1.0000 0.14070  0.51390  0.74050  Biso   1.000  H
  H205     1.0000 0.73610  0.89070  0.49050  Biso   1.000  H
  H206     1.0000 0.76390  0.10930  0.99050  Biso   1.000  H
  H207     1.0000 0.85930  0.98610  0.74050  Biso   1.000  H
  H208     1.0000 0.64070  0.01390  0.24050  Biso   1.000  H
  N33      1.0000 0.73095  0.51835  0.03470  Biso   1.000  N
  N34      1.0000 0.76905  0.48165  0.53470  Biso   1.000  N
  N35      1.0000 0.23165  0.98095  0.28470  Biso   1.000  N
  N36      1.0000 0.26835  0.01905  0.78470  Biso   1.000  N
  N37      1.0000 0.23095  0.01835  0.53470  Biso   1.000  N
  N38      1.0000 0.26905  0.98165  0.03470  Biso   1.000  N
  N39      1.0000 0.73165  0.48095  0.78470  Biso   1.000  N
  N40      1.0000 0.76835  0.51905  0.28470  Biso   1.000  N
  N41      1.0000 0.26905  0.48165  0.96530  Biso   1.000  N
  N42      1.0000 0.23095  0.51835  0.46530  Biso   1.000  N
  N43      1.0000 0.26835  0.51905  0.21530  Biso   1.000  N
  N44      1.0000 0.23165  0.48095  0.71530  Biso   1.000  N
  N45      1.0000 0.76905  0.98165  0.46530  Biso   1.000  N
  N46      1.0000 0.73095  0.01835  0.96530  Biso   1.000  N
  N47      1.0000 0.76835  0.01905  0.71530  Biso   1.000  N
  N48      1.0000 0.73165  0.98095  0.21530  Biso   1.000  N
  O49      1.0000 0.50000  0.25000  0.11820  Biso   1.000  O
  O50      1.0000 0.00000  0.75000  0.61820  Biso   1.000  O
  O51      1.0000 0.50000  0.75000  0.36820  Biso   1.000  O
  O52      1.0000 0.00000  0.25000  0.86820  Biso   1.000  O
  O53      1.0000 0.50000  0.75000  0.88180  Biso   1.000  O
  O54      1.0000 0.00000  0.25000  0.38180  Biso   1.000  O
  O55      1.0000 0.00000  0.75000  0.13180  Biso   1.000  O
  O56      1.0000 0.50000  0.25000  0.63180  Biso   1.000  O
  O57      1.0000 0.50000  0.75000  0.12500  Biso   1.000  O
  O58      1.0000 0.00000  0.25000  0.62500  Biso   1.000  O
  O59      1.0000 0.00000  0.75000  0.37500  Biso   1.000  O
  O60      1.0000 0.50000  0.25000  0.87500  Biso   1.000  O
  O61      1.0000 0.45110  0.37450  0.21780  Biso   1.000  O
  O62      1.0000 0.04890  0.62550  0.71780  Biso   1.000  O
  O63      1.0000 0.37550  0.70110  0.46780  Biso   1.000  O
  O64      1.0000 0.12450  0.29890  0.96780  Biso   1.000  O
  O65      1.0000 0.95110  0.87450  0.71780  Biso   1.000  O
  O66      1.0000 0.54890  0.12550  0.21780  Biso   1.000  O
  O67      1.0000 0.87550  0.20110  0.96780  Biso   1.000  O
  O68      1.0000 0.62450  0.79890  0.46780  Biso   1.000  O
  O69      1.0000 0.54890  0.62550  0.78220  Biso   1.000  O
  O70      1.0000 0.95110  0.37450  0.28220  Biso   1.000  O
  O71      1.0000 0.12450  0.79890  0.03220  Biso   1.000  O
  O72      1.0000 0.37550  0.20110  0.53220  Biso   1.000  O
  O73      1.0000 0.04890  0.12550  0.28220  Biso   1.000  O
  O74      1.0000 0.45110  0.87450  0.78220  Biso   1.000  O
  O75      1.0000 0.62450  0.29890  0.53220  Biso   1.000  O
  O76      1.0000 0.87550  0.70110  0.03220  Biso   1.000  O
  O77      1.0000 0.47500  0.33100  0.39600  Biso   1.000  O
  O78      1.0000 0.02500  0.66900  0.89600  Biso   1.000  O
  O79      1.0000 0.41900  0.72500  0.64600  Biso   1.000  O
  O80      1.0000 0.08100  0.27500  0.14600  Biso   1.000  O
  O81      1.0000 0.97500  0.83100  0.89600  Biso   1.000  O
  O82      1.0000 0.52500  0.16900  0.39600  Biso   1.000  O
  O83      1.0000 0.91900  0.22500  0.14600  Biso   1.000  O
  O84      1.0000 0.58100  0.77500  0.64600  Biso   1.000  O
  O85      1.0000 0.52500  0.66900  0.60400  Biso   1.000  O
  O86      1.0000 0.97500  0.33100  0.10400  Biso   1.000  O
  O87      1.0000 0.08100  0.77500  0.85400  Biso   1.000  O
  O88      1.0000 0.41900  0.22500  0.35400  Biso   1.000  O
  O89      1.0000 0.02500  0.16900  0.10400  Biso   1.000  O
  O90      1.0000 0.47500  0.83100  0.60400  Biso   1.000  O
  O91      1.0000 0.58100  0.27500  0.35400  Biso   1.000  O
  O92      1.0000 0.91900  0.72500  0.85400  Biso   1.000  O
