data_image0
_cell_length_a       11.881
_cell_length_b       15.07
_cell_length_c       18.338
_cell_angle_alpha    66.014
_cell_angle_beta     76.901
_cell_angle_gamma    75.646

_symmetry_space_group_name_H-M    "P 1"
_symmetry_int_tables_number       1

loop_
  _symmetry_equiv_pos_as_xyz
  'x, y, z'

loop_
  _atom_site_label
  _atom_site_occupancy
  _atom_site_fract_x
  _atom_site_fract_y
  _atom_site_fract_z
  _atom_site_thermal_displace_type
  _atom_site_B_iso_or_equiv
  _atom_site_type_symbol
  W1       1.0000 0.18530  0.70821  0.10479  Biso   1.000  W
  W2       1.0000 0.35890  0.27437  0.14709  Biso   1.000  W
  W3       1.0000 0.50790  0.48399  0.00422  Biso   1.000  W
  W4       1.0000 0.66800  0.44744  0.14693  Biso   1.000  W
  W5       1.0000 0.50840  0.24581  0.29402  Biso   1.000  W
  W6       1.0000 0.43320  0.50811  0.65354  Biso   1.000  W
  W7       1.0000 0.25640  0.75655  0.55322  Biso   1.000  W
  W8       1.0000 0.18240  0.52350  0.04653  Biso   1.000  W
  W9       1.0000 0.51010  0.67099  0.06159  Biso   1.000  W
  W10      1.0000 0.04200  0.52345  0.22965  Biso   1.000  W
  W11      1.0000 0.40240  0.75256  0.37142  Biso   1.000  W
  W12      1.0000 0.57440  0.50807  0.46982  Biso   1.000  W
  W13      1.0000 0.21330  0.27853  0.32832  Biso   1.000  W
  W14      1.0000 0.10670  0.78540  0.40580  Biso   1.000  W
  W15      1.0000 0.10520  0.36075  0.63766  Biso   1.000  W
  W16      1.0000 0.10740  0.54806  0.69519  Biso   1.000  W
  W17      1.0000 0.94720  0.58466  0.55203  Biso   1.000  W
  W18      1.0000 0.43100  0.32347  0.59497  Biso   1.000  W
  Ge1      1.0000 0.25960  0.55000  0.49820  Biso   1.000  Ge
  Ge2      1.0000 0.35610  0.48300  0.20170  Biso   1.000  Ge
  Cu1      1.0000 0.23890  0.61630  0.30800  Biso   1.000  Cu
  Cu2      1.0000 0.09740  0.44140  0.42680  Biso   1.000  Cu
  Cu3      1.0000 0.51880  0.58790  0.27190  Biso   1.000  Cu
  Cu4      1.0000 0.37930  0.41450  0.39170  Biso   1.000  Cu
  O1       1.0000 0.26800  0.33400  0.64200  Biso   1.000  O
  O2       1.0000 0.66300  0.58900  0.08930  Biso   1.000  O
  O3       1.0000 0.12600  0.19300  0.39000  Biso   1.000  O
  O4       1.0000 0.36100  0.20300  0.09680  Biso   1.000  O
  O5       1.0000 0.38500  0.49200  0.53600  Biso   1.000  O
  O6       1.0000 0.24300  0.83100  0.34880  Biso   1.000  O
  O7       1.0000 0.00200  0.70600  0.48790  Biso   1.000  O
  O8       1.0000 0.35500  0.35800  0.23950  Biso   1.000  O
  O9       1.0000 0.24700  0.22600  0.23500  Biso   1.000  O
  O10      1.0000 0.35800  0.51500  0.27890  Biso   1.000  O
  O11      1.0000 0.45600  0.36800  0.67700  Biso   1.000  O
  O12      1.0000 0.01200  0.89500  0.35660  Biso   1.000  O
  O13      1.0000 0.25400  0.67700  0.47040  Biso   1.000  O
  O14      1.0000 0.24600  0.51700  0.41200  Biso   1.000  O
  O15      1.0000 0.13000  0.71000  0.34810  Biso   1.000  O
  O16      1.0000 0.27700  0.50700  0.69300  Biso   1.000  O
  O17      1.0000 0.48600  0.21200  0.20390  Biso   1.000  O
  O18      1.0000 0.22550  0.53930  0.15410  Biso   1.000  O
  O19      1.0000 0.56800  0.37200  0.53700  Biso   1.000  O
  O20      1.0000 0.73100  0.52030  0.43750  Biso   1.000  O
  O21      1.0000 0.00000  0.55400  0.46000  Biso   1.000  O
  O22      1.0000 0.22400  0.70200  0.19870  Biso   1.000  O
  O23      1.0000 0.47600  0.35300  0.07200  Biso   1.000  O
  O24      1.0000 0.66200  0.43500  0.04900  Biso   1.000  O
  O25      1.0000 0.62600  0.47900  0.24400  Biso   1.000  O
  O26      1.0000 0.03500  0.66500  0.16710  Biso   1.000  O
  O27      1.0000 0.48400  0.51400  0.73200  Biso   1.000  O
  O28      1.0000 0.40600  0.67560  0.31890  Biso   1.000  O
  O29      1.0000 0.82200  0.41500  0.14400  Biso   1.000  O
  O30      1.0000 0.14100  0.83300  0.48610  Biso   1.000  O
  O31      1.0000 0.95100  0.45100  0.61500  Biso   1.000  O
  O32      1.0000 0.46900  0.51600  0.12050  Biso   1.000  O
  O33      1.0000 0.08800  0.41100  0.72500  Biso   1.000  O
  O34      1.0000 0.35800  0.19280  0.35710  Biso   1.000  O
  O35      1.0000 0.54000  0.60700  0.98000  Biso   1.000  O
  O36      1.0000 0.54800  0.78940  0.00070  Biso   1.000  O
  O37      1.0000 0.52400  0.50600  0.38000  Biso   1.000  O
  O38      1.0000 0.13030  0.52400  0.56960  Biso   1.000  O
  O39      1.0000 0.16100  0.65600  0.02600  Biso   1.000  O
  O40      1.0000 0.13200  0.34800  0.54420  Biso   1.000  O
  O41      1.0000 0.10800  0.39750  0.26100  Biso   1.000  O
  O42      1.0000 0.05000  0.26000  0.69800  Biso   1.000  O
  O43      1.0000 0.61400  0.15200  0.33500  Biso   1.000  O
  O44      1.0000 0.35000  0.71000  0.05490  Biso   1.000  O
  O45      1.0000 0.11800  0.82900  0.05820  Biso   1.000  O
  O46      1.0000 0.08900  0.53800  0.30900  Biso   1.000  O
  O47      1.0000 0.47900  0.19800  0.63920  Biso   1.000  O
  O48      1.0000 0.04500  0.51500  0.12400  Biso   1.000  O
  O49      1.0000 0.06000  0.55700  0.79000  Biso   1.000  O
  O50      1.0000 0.38900  0.32800  0.50700  Biso   1.000  O
  O51      1.0000 0.50000  0.32200  0.34900  Biso   1.000  O
  O52      1.0000 0.15300  0.67400  0.62630  Biso   1.000  O
  O53      1.0000 0.35400  0.53340  0.99870  Biso   1.000  O
  O54      1.0000 0.12800  0.53100  0.96000  Biso   1.000  O
  O55      1.0000 0.55900  0.46800  0.91600  Biso   1.000  O
  O56      1.0000 0.22800  0.34400  0.39570  Biso   1.000  O
  O57      1.0000 0.25100  0.83900  0.60100  Biso   1.000  O
  O58      1.0000 0.50200  0.83000  0.30800  Biso   1.000  O
  O59      1.0000 0.49300  0.67010  0.16730  Biso   1.000  O
  O60      1.0000 0.89700  0.53130  0.25690  Biso   1.000  O
  O61      1.0000 0.80300  0.62800  0.55020  Biso   1.000  O
  O62      1.0000 0.24500  0.37700  0.10120  Biso   1.000  O
  O63      1.0000 0.96700  0.60100  0.65000  Biso   1.000  O
  O64      1.0000 0.37200  0.79500  0.46400  Biso   1.000  O
  O65      1.0000 0.56800  0.52300  0.57800  Biso   1.000  O
  O66      1.0000 0.51050  0.65660  0.43170  Biso   1.000  O
  O67      1.0000 0.37500  0.63800  0.60360  Biso   1.000  O
  O68      1.0000 0.60900  0.32700  0.20800  Biso   1.000  O
  O69      1.0000 0.66500  0.65900  0.25840  Biso   1.000  O
  H1       1.0000 0.64920  0.70700  0.28280  Biso   1.000  H
  H2       1.0000 0.72720  0.60690  0.28180  Biso   1.000  H
  O70      1.0000 0.92100  0.37600  0.44500  Biso   1.000  O
  H3       1.0000 0.94570  0.32300  0.42470  Biso   1.000  H
  H4       1.0000 0.88800  0.35060  0.50020  Biso   1.000  H
  Cu5      1.0000 0.33840  0.12970  0.99620  Biso   1.000  Cu
  O71      1.0000 0.37700  0.98600  0.05800  Biso   1.000  O
  H5       1.0000 0.36060  0.98290  0.11250  Biso   1.000  H
  H6       1.0000 0.33350  0.94390  0.05210  Biso   1.000  H
  Cu6      1.0000 0.27550  0.90090  0.70400  Biso   1.000  Cu
  O72      1.0000 0.29200  0.94800  0.81440  Biso   1.000  O
  O73      1.0000 0.17800  0.14500  0.03600  Biso   1.000  O
  O74      1.0000 0.58600  0.76500  0.64100  Biso   1.000  O
  O75      1.0000 0.28800  0.09000  0.88900  Biso   1.000  O
  O76      1.0000 0.02000  0.26300  0.03580  Biso   1.000  O
  O77      1.0000 0.12300  0.89100  0.75300  Biso   1.000  O
  O78      1.0000 0.44500  0.88300  0.65500  Biso   1.000  O
  O79      1.0000 0.01600  0.76000  0.82700  Biso   1.000  O
  O80      1.0000 0.51200  0.15000  0.95400  Biso   1.000  O
  O81      1.0000 0.61700  0.25800  0.88900  Biso   1.000  O
  O82      1.0000 0.24200  0.03500  0.62500  Biso   1.000  O
  H7       1.0000 0.22470  0.04320  0.57420  Biso   1.000  H
  H8       1.0000 0.31160  0.06140  0.61750  Biso   1.000  H
  N1       1.0000 0.29200  0.26800  0.91300  Biso   1.000  N
  N2       1.0000 0.30700  0.76700  0.78700  Biso   1.000  N
  C1       1.0000 0.12400  0.22900  0.02200  Biso   1.000  C
  C2       1.0000 0.11900  0.79400  0.78800  Biso   1.000  C
  C3       1.0000 0.18800  0.30800  0.96100  Biso   1.000  C
  H9       1.0000 0.13530  0.35620  0.92430  Biso   1.000  H
  H10      1.0000 0.21420  0.34140  0.98770  Biso   1.000  H
  C4       1.0000 0.26200  0.25900  0.84400  Biso   1.000  C
  H11      1.0000 0.27510  0.31800  0.79740  Biso   1.000  H
  H12      1.0000 0.17880  0.25700  0.85380  Biso   1.000  H
  C5       1.0000 0.37900  0.84500  0.85800  Biso   1.000  C
  H13      1.0000 0.45460  0.83840  0.82570  Biso   1.000  H
  H14      1.0000 0.38930  0.83850  0.91150  Biso   1.000  H
  C6       1.0000 0.22400  0.71300  0.79730  Biso   1.000  C
  H15      1.0000 0.21770  0.66080  0.85050  Biso   1.000  H
  H16      1.0000 0.23810  0.68430  0.75640  Biso   1.000  H
  C7       1.0000 0.41600  0.30200  0.89200  Biso   1.000  C
  H17      1.0000 0.42860  0.33800  0.83460  Biso   1.000  H
  H18      1.0000 0.40820  0.34910  0.91750  Biso   1.000  H
  C8       1.0000 0.32600  0.17200  0.82100  Biso   1.000  C
  H19      1.0000 0.30320  0.17610  0.77240  Biso   1.000  H
  H20      1.0000 0.40990  0.16750  0.81440  Biso   1.000  H
  C9       1.0000 0.30400  0.77600  0.86200  Biso   1.000  C
  H21      1.0000 0.32880  0.71140  0.90110  Biso   1.000  H
  H22      1.0000 0.22300  0.79910  0.88110  Biso   1.000  H
  C10      1.0000 0.20800  0.03600  0.91200  Biso   1.000  C
  H23      1.0000 0.13010  0.07600  0.91070  Biso   1.000  H
  H24      1.0000 0.21380  0.98700  0.96610  Biso   1.000  H
  C11      1.0000 0.24300  0.98400  0.84100  Biso   1.000  C
  H25      1.0000 0.17650  0.95130  0.85600  Biso   1.000  H
  H26      1.0000 0.22330  0.04330  0.79470  Biso   1.000  H
  C12      1.0000 0.42300  0.72100  0.75500  Biso   1.000  C
  H27      1.0000 0.46820  0.68560  0.79940  Biso   1.000  H
  H28      1.0000 0.40940  0.67250  0.73740  Biso   1.000  H
  C13      1.0000 0.52500  0.23200  0.91290  Biso   1.000  C
  C14      1.0000 0.49300  0.78100  0.69200  Biso   1.000  C
  O83      1.0000 0.74000  0.39400  0.68680  Biso   1.000  O
  H29      1.0000 0.82460  0.38060  0.67860  Biso   1.000  H
  H30      1.0000 0.71100  0.33660  0.69440  Biso   1.000  H
  O84      1.0000 0.86800  0.38000  0.83600  Biso   1.000  O
  H31      1.0000 0.92180  0.35940  0.79540  Biso   1.000  H
  H32      1.0000 0.89190  0.43420  0.83930  Biso   1.000  H
  O85      1.0000 0.73400  0.59600  0.74700  Biso   1.000  O
  H33      1.0000 0.78730  0.60500  0.69800  Biso   1.000  H
  H34      1.0000 0.77190  0.59670  0.78760  Biso   1.000  H
  K1       1.0000 0.67700  0.42700  0.80000  Biso   1.000  K
  O86      1.0000 0.77400  0.86600  0.51100  Biso   1.000  O
  H35      1.0000 0.83480  0.87300  0.46560  Biso   1.000  H
  H36      1.0000 0.80940  0.83310  0.56010  Biso   1.000  H
  O87      1.0000 0.76100  0.71100  0.37300  Biso   1.000  O
  H37      1.0000 0.73160  0.67040  0.35520  Biso   1.000  H
  H38      1.0000 0.76870  0.77300  0.32970  Biso   1.000  H
  O88      1.0000 0.02300  0.08500  0.28100  Biso   1.000  O
  O89      1.0000 0.87100  0.65300  0.03380  Biso   1.000  O
  H39      1.0000 0.82200  0.60770  0.07200  Biso   1.000  H
  H40      1.0000 0.82750  0.71910  0.01980  Biso   1.000  H
  O90      1.0000 0.72900  0.67300  0.85800  Biso   1.000  O
  H41      1.0000 0.68070  0.62330  0.88730  Biso   1.000  H
  H42      1.0000 0.73720  0.68560  0.80100  Biso   1.000  H
  O91      1.0000 0.88600  0.44100  0.95800  Biso   1.000  O
  H43      1.0000 0.81280  0.44220  0.99360  Biso   1.000  H
  H44      1.0000 0.94510  0.39190  0.98740  Biso   1.000  H
  K2       1.0000 0.94270  0.60620  0.90010  Biso   1.000  K
  O92      1.0000 0.84600  0.32700  0.33100  Biso   1.000  O
  H45      1.0000 0.88900  0.33040  0.36800  Biso   1.000  H
  H46      1.0000 0.80040  0.27520  0.35870  Biso   1.000  H
  K3       1.0000 0.60220  0.73820  0.50820  Biso   1.000  K
  O93      1.0000 0.52900  0.94800  0.47200  Biso   1.000  O
  H47      1.0000 0.53620  0.88050  0.50830  Biso   1.000  H
  H48      1.0000 0.46200  0.98640  0.49310  Biso   1.000  H
  K4       1.0000 0.01100  0.28850  0.19830  Biso   1.000  K
  K5       1.0000 0.92490  0.03280  0.25670  Biso   1.000  K
  O94      1.0000 0.79000  0.97600  0.34300  Biso   1.000  O
  H49      1.0000 0.81620  0.90980  0.34260  Biso   1.000  H
  H50      1.0000 0.78070  0.03070  0.29220  Biso   1.000  H
  O95      1.0000 0.02100  0.02300  0.16000  Biso   1.000  O
  O96      1.0000 0.94200  0.82600  0.22800  Biso   1.000  O
  Cu7      1.0000 0.86900  0.11600  0.62100  Biso   1.000  Cu
  O97      1.0000 0.81400  0.24900  0.58680  Biso   1.000  O
  H51      1.0000 0.77210  0.26720  0.63140  Biso   1.000  H
  H52      1.0000 0.87590  0.28640  0.55990  Biso   1.000  H
  O98      1.0000 0.95800  0.98100  0.64970  Biso   1.000  O
  H53      1.0000 0.95050  0.94440  0.70690  Biso   1.000  H
  H54      1.0000 0.92630  0.94910  0.62470  Biso   1.000  H
  O99      1.0000 0.92400  0.11200  0.72600  Biso   1.000  O
  H55      1.0000 0.86020  0.15040  0.74950  Biso   1.000  H
  H56      1.0000 0.93560  0.04500  0.76390  Biso   1.000  H
  O100     1.0000 0.85600  0.11000  0.52100  Biso   1.000  O
  H57      1.0000 0.77920  0.14580  0.51090  Biso   1.000  H
  H58      1.0000 0.86090  0.04260  0.52760  Biso   1.000  H
  O101     1.0000 0.69300  0.05800  0.68900  Biso   1.000  O
  O102     1.0000 0.06570  0.17310  0.55790  Biso   1.000  O
  H59      1.0000 0.07300  0.22200  0.57670  Biso   1.000  H
  H60      1.0000 0.13030  0.11920  0.57070  Biso   1.000  H
  O103     1.0000 0.61400  0.00900  0.57200  Biso   1.000  O
  H61      1.0000 0.61950  0.06970  0.57620  Biso   1.000  H
  H62      1.0000 0.53300  0.00710  0.57500  Biso   1.000  H
  O104     1.0000 0.36700  0.00200  0.36600  Biso   1.000  O
  O105     1.0000 0.40300  0.12400  0.52600  Biso   1.000  O
  O106     1.0000 0.89800  0.83300  0.60600  Biso   1.000  O
  O107     1.0000 0.67500  0.24000  0.45130  Biso   1.000  O
  O108     1.0000 0.22400  0.88000  0.18900  Biso   1.000  O
  O109     1.0000 0.02500  0.03500  0.44600  Biso   1.000  O
  O110     1.0000 0.83600  0.92300  0.83200  Biso   1.000  O
  O111     1.0000 0.69900  0.22300  0.05900  Biso   1.000  O
  O112     1.0000 0.88000  0.17700  0.94200  Biso   1.000  O
  O113     1.0000 0.51200  0.99800  0.84900  Biso   1.000  O
  K6       1.0000 0.73820  0.91750  0.07440  Biso   1.000  K
  O114     1.0000 0.91600  0.03500  0.02700  Biso   1.000  O
  O115     1.0000 0.81000  0.94600  0.99600  Biso   1.000  O
  O116     1.0000 0.58800  0.02200  0.20500  Biso   1.000  O
  O117     1.0000 0.81000  0.07500  0.44000  Biso   1.000  O
  O118     1.0000 0.68500  0.20500  0.73900  Biso   1.000  O
  O119     1.0000 0.27800  0.03500  0.24800  Biso   1.000  O
  O120     1.0000 0.07700  0.01700  0.42900  Biso   1.000  O
