data_image0
_cell_length_a       41.5112
_cell_length_b       41.4556
_cell_length_c       31.1677
_cell_angle_alpha    90
_cell_angle_beta     109.408
_cell_angle_gamma    90

_symmetry_space_group_name_H-M    "P 1"
_symmetry_int_tables_number       1

loop_
  _symmetry_equiv_pos_as_xyz
  'x, y, z'

loop_
  _atom_site_label
  _atom_site_occupancy
  _atom_site_fract_x
  _atom_site_fract_y
  _atom_site_fract_z
  _atom_site_thermal_displace_type
  _atom_site_B_iso_or_equiv
  _atom_site_type_symbol
  Cu1      1.0000 0.98836  0.98185  0.52629  Biso   1.000  Cu
  Cu2      1.0000 0.01164  0.98185  0.97371  Biso   1.000  Cu
  Cu3      1.0000 0.48836  0.48185  0.52629  Biso   1.000  Cu
  Cu4      1.0000 0.51164  0.48185  0.97371  Biso   1.000  Cu
  Cu5      1.0000 0.01164  0.01815  0.47371  Biso   1.000  Cu
  Cu6      1.0000 0.98836  0.01815  0.02629  Biso   1.000  Cu
  Cu7      1.0000 0.51164  0.51815  0.47371  Biso   1.000  Cu
  Cu8      1.0000 0.48836  0.51815  0.02629  Biso   1.000  Cu
  Cu9      1.0000 0.73847  0.26819  0.02631  Biso   1.000  Cu
  Cu10     1.0000 0.26153  0.26819  0.47369  Biso   1.000  Cu
  Cu11     1.0000 0.23847  0.76819  0.02631  Biso   1.000  Cu
  Cu12     1.0000 0.76153  0.76819  0.47369  Biso   1.000  Cu
  Cu13     1.0000 0.26153  0.73181  0.97369  Biso   1.000  Cu
  Cu14     1.0000 0.73847  0.73181  0.52631  Biso   1.000  Cu
  Cu15     1.0000 0.76153  0.23181  0.97369  Biso   1.000  Cu
  Cu16     1.0000 0.23847  0.23181  0.52631  Biso   1.000  Cu
  Cu17     1.0000 0.64982  0.85682  0.02637  Biso   1.000  Cu
  Cu18     1.0000 0.35018  0.85682  0.47363  Biso   1.000  Cu
  Cu19     1.0000 0.14982  0.35682  0.02637  Biso   1.000  Cu
  Cu20     1.0000 0.85018  0.35682  0.47363  Biso   1.000  Cu
  Cu21     1.0000 0.35018  0.14318  0.97363  Biso   1.000  Cu
  Cu22     1.0000 0.64982  0.14318  0.52637  Biso   1.000  Cu
  Cu23     1.0000 0.85018  0.64318  0.97363  Biso   1.000  Cu
  Cu24     1.0000 0.14982  0.64318  0.52637  Biso   1.000  Cu
  Cu25     1.0000 0.60028  0.89317  0.97376  Biso   1.000  Cu
  Cu26     1.0000 0.39972  0.89317  0.52624  Biso   1.000  Cu
  Cu27     1.0000 0.10028  0.39317  0.97376  Biso   1.000  Cu
  Cu28     1.0000 0.89972  0.39317  0.52624  Biso   1.000  Cu
  Cu29     1.0000 0.39972  0.10683  0.02624  Biso   1.000  Cu
  Cu30     1.0000 0.60028  0.10683  0.47376  Biso   1.000  Cu
  Cu31     1.0000 0.89972  0.60683  0.02624  Biso   1.000  Cu
  Cu32     1.0000 0.10028  0.60683  0.47376  Biso   1.000  Cu
  C1       1.0000 0.00677  0.81251  0.27559  Biso   1.000  C
  C2       1.0000 0.99323  0.81251  0.22441  Biso   1.000  C
  C3       1.0000 0.50677  0.31251  0.27559  Biso   1.000  C
  C4       1.0000 0.49323  0.31251  0.22441  Biso   1.000  C
  C5       1.0000 0.99323  0.18749  0.72441  Biso   1.000  C
  C6       1.0000 0.00677  0.18749  0.77559  Biso   1.000  C
  C7       1.0000 0.49323  0.68749  0.72441  Biso   1.000  C
  C8       1.0000 0.50677  0.68749  0.77559  Biso   1.000  C
  C9       1.0000 0.00059  0.83898  0.29910  Biso   1.000  C
  C10      1.0000 0.99941  0.83898  0.20090  Biso   1.000  C
  C11      1.0000 0.50059  0.33898  0.29910  Biso   1.000  C
  C12      1.0000 0.49941  0.33898  0.20090  Biso   1.000  C
  C13      1.0000 0.99941  0.16102  0.70090  Biso   1.000  C
  C14      1.0000 0.00059  0.16102  0.79910  Biso   1.000  C
  C15      1.0000 0.49941  0.66102  0.70090  Biso   1.000  C
  C16      1.0000 0.50059  0.66102  0.79910  Biso   1.000  C
  C17      1.0000 0.01227  0.83906  0.34638  Biso   1.000  C
  C18      1.0000 0.98773  0.83906  0.15362  Biso   1.000  C
  C19      1.0000 0.51227  0.33906  0.34638  Biso   1.000  C
  C20      1.0000 0.48773  0.33906  0.15362  Biso   1.000  C
  C21      1.0000 0.98773  0.16094  0.65362  Biso   1.000  C
  C22      1.0000 0.01227  0.16094  0.84638  Biso   1.000  C
  C23      1.0000 0.48773  0.66094  0.65362  Biso   1.000  C
  C24      1.0000 0.51227  0.66094  0.84638  Biso   1.000  C
  C25      1.0000 0.03014  0.81266  0.37016  Biso   1.000  C
  C26      1.0000 0.96986  0.81266  0.12984  Biso   1.000  C
  C27      1.0000 0.53014  0.31266  0.37016  Biso   1.000  C
  C28      1.0000 0.46986  0.31266  0.12984  Biso   1.000  C
  C29      1.0000 0.96986  0.18734  0.62984  Biso   1.000  C
  C30      1.0000 0.03014  0.18734  0.87016  Biso   1.000  C
  C31      1.0000 0.46986  0.68734  0.62984  Biso   1.000  C
  C32      1.0000 0.53014  0.68734  0.87016  Biso   1.000  C
  H1       1.0000 0.03800  0.81270  0.40210  Biso   1.000  H
  H2       1.0000 0.96200  0.81270  0.09790  Biso   1.000  H
  H3       1.0000 0.53800  0.31270  0.40210  Biso   1.000  H
  H4       1.0000 0.46200  0.31270  0.09790  Biso   1.000  H
  H5       1.0000 0.96200  0.18730  0.59790  Biso   1.000  H
  H6       1.0000 0.03800  0.18730  0.90210  Biso   1.000  H
  H7       1.0000 0.46200  0.68730  0.59790  Biso   1.000  H
  H8       1.0000 0.53800  0.68730  0.90210  Biso   1.000  H
  C33      1.0000 0.03632  0.78618  0.34666  Biso   1.000  C
  C34      1.0000 0.96368  0.78618  0.15334  Biso   1.000  C
  C35      1.0000 0.53632  0.28618  0.34666  Biso   1.000  C
  C36      1.0000 0.46368  0.28618  0.15334  Biso   1.000  C
  C37      1.0000 0.96368  0.21382  0.65334  Biso   1.000  C
  C38      1.0000 0.03632  0.21382  0.84666  Biso   1.000  C
  C39      1.0000 0.46368  0.71382  0.65334  Biso   1.000  C
  C40      1.0000 0.53632  0.71382  0.84666  Biso   1.000  C
  C41      1.0000 0.02463  0.78610  0.29937  Biso   1.000  C
  C42      1.0000 0.97537  0.78610  0.20063  Biso   1.000  C
  C43      1.0000 0.52463  0.28610  0.29937  Biso   1.000  C
  C44      1.0000 0.47537  0.28610  0.20063  Biso   1.000  C
  C45      1.0000 0.97537  0.21390  0.70063  Biso   1.000  C
  C46      1.0000 0.02463  0.21390  0.79937  Biso   1.000  C
  C47      1.0000 0.47537  0.71390  0.70063  Biso   1.000  C
  C48      1.0000 0.52463  0.71390  0.79937  Biso   1.000  C
  C49      1.0000 0.00100  0.95140  0.45230  Biso   1.000  C
  C50      1.0000 0.99900  0.95140  0.04770  Biso   1.000  C
  C51      1.0000 0.50100  0.45140  0.45230  Biso   1.000  C
  C52      1.0000 0.49900  0.45140  0.04770  Biso   1.000  C
  C53      1.0000 0.99900  0.04860  0.54770  Biso   1.000  C
  C54      1.0000 0.00100  0.04860  0.95230  Biso   1.000  C
  C55      1.0000 0.49900  0.54860  0.54770  Biso   1.000  C
  C56      1.0000 0.50100  0.54860  0.95230  Biso   1.000  C
  C57      1.0000 0.05272  0.75626  0.37300  Biso   1.000  C
  C58      1.0000 0.94728  0.75626  0.12700  Biso   1.000  C
  C59      1.0000 0.55272  0.25626  0.37300  Biso   1.000  C
  C60      1.0000 0.44728  0.25626  0.12700  Biso   1.000  C
  C61      1.0000 0.94728  0.24374  0.62700  Biso   1.000  C
  C62      1.0000 0.05272  0.24374  0.87300  Biso   1.000  C
  C63      1.0000 0.44728  0.74374  0.62700  Biso   1.000  C
  C64      1.0000 0.55272  0.74374  0.87300  Biso   1.000  C
  C65      1.0000 0.03951  0.72566  0.35962  Biso   1.000  C
  C66      1.0000 0.96049  0.72566  0.14038  Biso   1.000  C
  C67      1.0000 0.53951  0.22566  0.35962  Biso   1.000  C
  C68      1.0000 0.46049  0.22566  0.14038  Biso   1.000  C
  C69      1.0000 0.96049  0.27434  0.64038  Biso   1.000  C
  C70      1.0000 0.03951  0.27434  0.85962  Biso   1.000  C
  C71      1.0000 0.46049  0.77434  0.64038  Biso   1.000  C
  C72      1.0000 0.53951  0.77434  0.85962  Biso   1.000  C
  H9       1.0000 0.02010  0.72310  0.33360  Biso   1.000  H
  H10      1.0000 0.97990  0.72310  0.16640  Biso   1.000  H
  H11      1.0000 0.52010  0.22310  0.33360  Biso   1.000  H
  H12      1.0000 0.47990  0.22310  0.16640  Biso   1.000  H
  H13      1.0000 0.97990  0.27690  0.66640  Biso   1.000  H
  H14      1.0000 0.02010  0.27690  0.83360  Biso   1.000  H
  H15      1.0000 0.47990  0.77690  0.66640  Biso   1.000  H
  H16      1.0000 0.52010  0.77690  0.83360  Biso   1.000  H
  C73      1.0000 0.05499  0.69879  0.38470  Biso   1.000  C
  C74      1.0000 0.94501  0.69879  0.11530  Biso   1.000  C
  C75      1.0000 0.55499  0.19879  0.38470  Biso   1.000  C
  C76      1.0000 0.44501  0.19879  0.11530  Biso   1.000  C
  C77      1.0000 0.94501  0.30121  0.61530  Biso   1.000  C
  C78      1.0000 0.05499  0.30121  0.88470  Biso   1.000  C
  C79      1.0000 0.44501  0.80121  0.61530  Biso   1.000  C
  C80      1.0000 0.55499  0.80121  0.88470  Biso   1.000  C
  H17      1.0000 0.04610  0.67810  0.37570  Biso   1.000  H
  H18      1.0000 0.95390  0.67810  0.12430  Biso   1.000  H
  H19      1.0000 0.54610  0.17810  0.37570  Biso   1.000  H
  H20      1.0000 0.45390  0.17810  0.12430  Biso   1.000  H
  H21      1.0000 0.95390  0.32190  0.62430  Biso   1.000  H
  H22      1.0000 0.04610  0.32190  0.87570  Biso   1.000  H
  H23      1.0000 0.45390  0.82190  0.62430  Biso   1.000  H
  H24      1.0000 0.54610  0.82190  0.87570  Biso   1.000  H
  C81      1.0000 0.08369  0.70251  0.42320  Biso   1.000  C
  C82      1.0000 0.91631  0.70251  0.07680  Biso   1.000  C
  C83      1.0000 0.58369  0.20251  0.42320  Biso   1.000  C
  C84      1.0000 0.41631  0.20251  0.07680  Biso   1.000  C
  C85      1.0000 0.91631  0.29749  0.57680  Biso   1.000  C
  C86      1.0000 0.08369  0.29749  0.92320  Biso   1.000  C
  C87      1.0000 0.41631  0.79749  0.57680  Biso   1.000  C
  C88      1.0000 0.58369  0.79749  0.92320  Biso   1.000  C
  C89      1.0000 0.09691  0.73311  0.43659  Biso   1.000  C
  C90      1.0000 0.90309  0.73311  0.06341  Biso   1.000  C
  C91      1.0000 0.59691  0.23311  0.43659  Biso   1.000  C
  C92      1.0000 0.40309  0.23311  0.06341  Biso   1.000  C
  C93      1.0000 0.90309  0.26689  0.56341  Biso   1.000  C
  C94      1.0000 0.09691  0.26689  0.93659  Biso   1.000  C
  C95      1.0000 0.40309  0.76689  0.56341  Biso   1.000  C
  C96      1.0000 0.59691  0.76689  0.93659  Biso   1.000  C
  H25      1.0000 0.11630  0.73560  0.46260  Biso   1.000  H
  H26      1.0000 0.88370  0.73560  0.03740  Biso   1.000  H
  H27      1.0000 0.61630  0.23560  0.46260  Biso   1.000  H
  H28      1.0000 0.38370  0.23560  0.03740  Biso   1.000  H
  H29      1.0000 0.88370  0.26440  0.53740  Biso   1.000  H
  H30      1.0000 0.11630  0.26440  0.96260  Biso   1.000  H
  H31      1.0000 0.38370  0.76440  0.53740  Biso   1.000  H
  H32      1.0000 0.61630  0.76440  0.96260  Biso   1.000  H
  C97      1.0000 0.08142  0.75999  0.41150  Biso   1.000  C
  C98      1.0000 0.91858  0.75999  0.08850  Biso   1.000  C
  C99      1.0000 0.58142  0.25999  0.41150  Biso   1.000  C
  C100     1.0000 0.41858  0.25999  0.08850  Biso   1.000  C
  C101     1.0000 0.91858  0.24001  0.58850  Biso   1.000  C
  C102     1.0000 0.08142  0.24001  0.91150  Biso   1.000  C
  C103     1.0000 0.41858  0.74001  0.58850  Biso   1.000  C
  C104     1.0000 0.58142  0.74001  0.91150  Biso   1.000  C
  H33      1.0000 0.09040  0.78070  0.42060  Biso   1.000  H
  H34      1.0000 0.90960  0.78070  0.07940  Biso   1.000  H
  H35      1.0000 0.59040  0.28070  0.42060  Biso   1.000  H
  H36      1.0000 0.40960  0.28070  0.07940  Biso   1.000  H
  H37      1.0000 0.90960  0.21930  0.57940  Biso   1.000  H
  H38      1.0000 0.09040  0.21930  0.92060  Biso   1.000  H
  H39      1.0000 0.40960  0.71930  0.57940  Biso   1.000  H
  H40      1.0000 0.59040  0.71930  0.92060  Biso   1.000  H
  C105     1.0000 0.09900  0.67330  0.45130  Biso   1.000  C
  C106     1.0000 0.90100  0.67330  0.04870  Biso   1.000  C
  C107     1.0000 0.59900  0.17330  0.45130  Biso   1.000  C
  C108     1.0000 0.40100  0.17330  0.04870  Biso   1.000  C
  C109     1.0000 0.90100  0.32670  0.54870  Biso   1.000  C
  C110     1.0000 0.09900  0.32670  0.95130  Biso   1.000  C
  C111     1.0000 0.40100  0.82670  0.54870  Biso   1.000  C
  C112     1.0000 0.59900  0.82670  0.95130  Biso   1.000  C
  C113     1.0000 0.00874  0.86837  0.37300  Biso   1.000  C
  C114     1.0000 0.99126  0.86837  0.12700  Biso   1.000  C
  C115     1.0000 0.50874  0.36837  0.37300  Biso   1.000  C
  C116     1.0000 0.49126  0.36837  0.12700  Biso   1.000  C
  C117     1.0000 0.99126  0.13163  0.62700  Biso   1.000  C
  C118     1.0000 0.00874  0.13163  0.87300  Biso   1.000  C
  C119     1.0000 0.49126  0.63163  0.62700  Biso   1.000  C
  C120     1.0000 0.50874  0.63163  0.87300  Biso   1.000  C
  C121     1.0000 0.01542  0.89890  0.35952  Biso   1.000  C
  C122     1.0000 0.98458  0.89890  0.14048  Biso   1.000  C
  C123     1.0000 0.51542  0.39890  0.35952  Biso   1.000  C
  C124     1.0000 0.48458  0.39890  0.14048  Biso   1.000  C
  C125     1.0000 0.98458  0.10110  0.64048  Biso   1.000  C
  C126     1.0000 0.01542  0.10110  0.85952  Biso   1.000  C
  C127     1.0000 0.48458  0.60110  0.64048  Biso   1.000  C
  C128     1.0000 0.51542  0.60110  0.85952  Biso   1.000  C
  H41      1.0000 0.02170  0.90130  0.33340  Biso   1.000  H
  H42      1.0000 0.97830  0.90130  0.16660  Biso   1.000  H
  H43      1.0000 0.52170  0.40130  0.33340  Biso   1.000  H
  H44      1.0000 0.47830  0.40130  0.16660  Biso   1.000  H
  H45      1.0000 0.97830  0.09870  0.66660  Biso   1.000  H
  H46      1.0000 0.02170  0.09870  0.83340  Biso   1.000  H
  H47      1.0000 0.47830  0.59870  0.66660  Biso   1.000  H
  H48      1.0000 0.52170  0.59870  0.83340  Biso   1.000  H
  C129     1.0000 0.01283  0.92584  0.38470  Biso   1.000  C
  C130     1.0000 0.98717  0.92584  0.11530  Biso   1.000  C
  C131     1.0000 0.51283  0.42584  0.38470  Biso   1.000  C
  C132     1.0000 0.48717  0.42584  0.11530  Biso   1.000  C
  C133     1.0000 0.98717  0.07416  0.61530  Biso   1.000  C
  C134     1.0000 0.01283  0.07416  0.88470  Biso   1.000  C
  C135     1.0000 0.48717  0.57416  0.61530  Biso   1.000  C
  C136     1.0000 0.51283  0.57416  0.88470  Biso   1.000  C
  H49      1.0000 0.01730  0.94650  0.37560  Biso   1.000  H
  H50      1.0000 0.98270  0.94650  0.12440  Biso   1.000  H
  H51      1.0000 0.51730  0.44650  0.37560  Biso   1.000  H
  H52      1.0000 0.48270  0.44650  0.12440  Biso   1.000  H
  H53      1.0000 0.98270  0.05350  0.62440  Biso   1.000  H
  H54      1.0000 0.01730  0.05350  0.87560  Biso   1.000  H
  H55      1.0000 0.48270  0.55350  0.62440  Biso   1.000  H
  H56      1.0000 0.51730  0.55350  0.87560  Biso   1.000  H
  C137     1.0000 0.00356  0.92225  0.42340  Biso   1.000  C
  C138     1.0000 0.99644  0.92225  0.07660  Biso   1.000  C
  C139     1.0000 0.50356  0.42225  0.42340  Biso   1.000  C
  C140     1.0000 0.49644  0.42225  0.07660  Biso   1.000  C
  C141     1.0000 0.99644  0.07775  0.57660  Biso   1.000  C
  C142     1.0000 0.00356  0.07775  0.92340  Biso   1.000  C
  C143     1.0000 0.49644  0.57775  0.57660  Biso   1.000  C
  C144     1.0000 0.50356  0.57775  0.92340  Biso   1.000  C
  C145     1.0000 0.99688  0.89172  0.43689  Biso   1.000  C
  C146     1.0000 0.00312  0.89172  0.06311  Biso   1.000  C
  C147     1.0000 0.49688  0.39172  0.43689  Biso   1.000  C
  C148     1.0000 0.50312  0.39172  0.06311  Biso   1.000  C
  C149     1.0000 0.00312  0.10828  0.56311  Biso   1.000  C
  C150     1.0000 0.99688  0.10828  0.93689  Biso   1.000  C
  C151     1.0000 0.50312  0.60828  0.56311  Biso   1.000  C
  C152     1.0000 0.49688  0.60828  0.93689  Biso   1.000  C
  H57      1.0000 0.99060  0.88930  0.46310  Biso   1.000  H
  H58      1.0000 0.00940  0.88930  0.03690  Biso   1.000  H
  H59      1.0000 0.49060  0.38930  0.46310  Biso   1.000  H
  H60      1.0000 0.50940  0.38930  0.03690  Biso   1.000  H
  H61      1.0000 0.00940  0.11070  0.53690  Biso   1.000  H
  H62      1.0000 0.99060  0.11070  0.96310  Biso   1.000  H
  H63      1.0000 0.50940  0.61070  0.53690  Biso   1.000  H
  H64      1.0000 0.49060  0.61070  0.96310  Biso   1.000  H
  C153     1.0000 0.99947  0.86478  0.41170  Biso   1.000  C
  C154     1.0000 0.00053  0.86478  0.08830  Biso   1.000  C
  C155     1.0000 0.49947  0.36478  0.41170  Biso   1.000  C
  C156     1.0000 0.50053  0.36478  0.08830  Biso   1.000  C
  C157     1.0000 0.00053  0.13522  0.58830  Biso   1.000  C
  C158     1.0000 0.99947  0.13522  0.91170  Biso   1.000  C
  C159     1.0000 0.50053  0.63522  0.58830  Biso   1.000  C
  C160     1.0000 0.49947  0.63522  0.91170  Biso   1.000  C
  H65      1.0000 0.99500  0.84410  0.42080  Biso   1.000  H
  H66      1.0000 0.00500  0.84410  0.07920  Biso   1.000  H
  H67      1.0000 0.49500  0.34410  0.42080  Biso   1.000  H
  H68      1.0000 0.50500  0.34410  0.07920  Biso   1.000  H
  H69      1.0000 0.00500  0.15590  0.57920  Biso   1.000  H
  H70      1.0000 0.99500  0.15590  0.92080  Biso   1.000  H
  H71      1.0000 0.50500  0.65590  0.57920  Biso   1.000  H
  H72      1.0000 0.49500  0.65590  0.92080  Biso   1.000  H
  C161     1.0000 0.65050  0.92270  0.04810  Biso   1.000  C
  C162     1.0000 0.34950  0.92270  0.45190  Biso   1.000  C
  C163     1.0000 0.15050  0.42270  0.04810  Biso   1.000  C
  C164     1.0000 0.84950  0.42270  0.45190  Biso   1.000  C
  C165     1.0000 0.34950  0.07730  0.95190  Biso   1.000  C
  C166     1.0000 0.65050  0.07730  0.54810  Biso   1.000  C
  C167     1.0000 0.84950  0.57730  0.95190  Biso   1.000  C
  C168     1.0000 0.15050  0.57730  0.54810  Biso   1.000  C
  C169     1.0000 0.73695  0.08919  0.15300  Biso   1.000  C
  C170     1.0000 0.26305  0.08919  0.34700  Biso   1.000  C
  C171     1.0000 0.23695  0.58919  0.15300  Biso   1.000  C
  C172     1.0000 0.76305  0.58919  0.34700  Biso   1.000  C
  C173     1.0000 0.26305  0.91081  0.84700  Biso   1.000  C
  C174     1.0000 0.73695  0.91081  0.65300  Biso   1.000  C
  C175     1.0000 0.76305  0.41081  0.84700  Biso   1.000  C
  C176     1.0000 0.23695  0.41081  0.65300  Biso   1.000  C
  C177     1.0000 0.72000  0.06228  0.12957  Biso   1.000  C
  C178     1.0000 0.28000  0.06228  0.37043  Biso   1.000  C
  C179     1.0000 0.22000  0.56228  0.12957  Biso   1.000  C
  C180     1.0000 0.78000  0.56228  0.37043  Biso   1.000  C
  C181     1.0000 0.28000  0.93772  0.87043  Biso   1.000  C
  C182     1.0000 0.72000  0.93772  0.62957  Biso   1.000  C
  C183     1.0000 0.78000  0.43772  0.87043  Biso   1.000  C
  C184     1.0000 0.22000  0.43772  0.62957  Biso   1.000  C
  H73      1.0000 0.71200  0.06220  0.09760  Biso   1.000  H
  H74      1.0000 0.28800  0.06220  0.40240  Biso   1.000  H
  H75      1.0000 0.21200  0.56220  0.09760  Biso   1.000  H
  H76      1.0000 0.78800  0.56220  0.40240  Biso   1.000  H
  H77      1.0000 0.28800  0.93780  0.90240  Biso   1.000  H
  H78      1.0000 0.71200  0.93780  0.59760  Biso   1.000  H
  H79      1.0000 0.78800  0.43780  0.90240  Biso   1.000  H
  H80      1.0000 0.21200  0.43780  0.59760  Biso   1.000  H
  C185     1.0000 0.71494  0.03549  0.15340  Biso   1.000  C
  C186     1.0000 0.28506  0.03549  0.34660  Biso   1.000  C
  C187     1.0000 0.21494  0.53549  0.15340  Biso   1.000  C
  C188     1.0000 0.78506  0.53549  0.34660  Biso   1.000  C
  C189     1.0000 0.28506  0.96451  0.84660  Biso   1.000  C
  C190     1.0000 0.71494  0.96451  0.65340  Biso   1.000  C
  C191     1.0000 0.78506  0.46451  0.84660  Biso   1.000  C
  C192     1.0000 0.21494  0.46451  0.65340  Biso   1.000  C
  C193     1.0000 0.72682  0.03562  0.20070  Biso   1.000  C
  C194     1.0000 0.27318  0.03562  0.29930  Biso   1.000  C
  C195     1.0000 0.22682  0.53562  0.20070  Biso   1.000  C
  C196     1.0000 0.77318  0.53562  0.29930  Biso   1.000  C
  C197     1.0000 0.27318  0.96438  0.79930  Biso   1.000  C
  C198     1.0000 0.72682  0.96438  0.70070  Biso   1.000  C
  C199     1.0000 0.77318  0.46438  0.79930  Biso   1.000  C
  C200     1.0000 0.22682  0.46438  0.70070  Biso   1.000  C
  C201     1.0000 0.74377  0.06253  0.22414  Biso   1.000  C
  C202     1.0000 0.25623  0.06253  0.27586  Biso   1.000  C
  C203     1.0000 0.24377  0.56253  0.22414  Biso   1.000  C
  C204     1.0000 0.75623  0.56253  0.27586  Biso   1.000  C
  C205     1.0000 0.25623  0.93747  0.77586  Biso   1.000  C
  C206     1.0000 0.74377  0.93747  0.72414  Biso   1.000  C
  C207     1.0000 0.75623  0.43747  0.77586  Biso   1.000  C
  C208     1.0000 0.24377  0.43747  0.72414  Biso   1.000  C
  C209     1.0000 0.74884  0.08932  0.20030  Biso   1.000  C
  C210     1.0000 0.25116  0.08932  0.29970  Biso   1.000  C
  C211     1.0000 0.24884  0.58932  0.20030  Biso   1.000  C
  C212     1.0000 0.75116  0.58932  0.29970  Biso   1.000  C
  C213     1.0000 0.25116  0.91068  0.79970  Biso   1.000  C
  C214     1.0000 0.74884  0.91068  0.70030  Biso   1.000  C
  C215     1.0000 0.75116  0.41068  0.79970  Biso   1.000  C
  C216     1.0000 0.24884  0.41068  0.70030  Biso   1.000  C
  C217     1.0000 0.74900  0.20100  0.04780  Biso   1.000  C
  C218     1.0000 0.25100  0.20100  0.45220  Biso   1.000  C
  C219     1.0000 0.24900  0.70100  0.04780  Biso   1.000  C
  C220     1.0000 0.75100  0.70100  0.45220  Biso   1.000  C
  C221     1.0000 0.25100  0.79900  0.95220  Biso   1.000  C
  C222     1.0000 0.74900  0.79900  0.54780  Biso   1.000  C
  C223     1.0000 0.75100  0.29900  0.95220  Biso   1.000  C
  C224     1.0000 0.24900  0.29900  0.54780  Biso   1.000  C
  C225     1.0000 0.74077  0.11898  0.12658  Biso   1.000  C
  C226     1.0000 0.25923  0.11898  0.37342  Biso   1.000  C
  C227     1.0000 0.24077  0.61898  0.12658  Biso   1.000  C
  C228     1.0000 0.75923  0.61898  0.37342  Biso   1.000  C
  C229     1.0000 0.25923  0.88102  0.87342  Biso   1.000  C
  C230     1.0000 0.74077  0.88102  0.62658  Biso   1.000  C
  C231     1.0000 0.75923  0.38102  0.87342  Biso   1.000  C
  C232     1.0000 0.24077  0.38102  0.62658  Biso   1.000  C
  C233     1.0000 0.75006  0.11529  0.08790  Biso   1.000  C
  C234     1.0000 0.24994  0.11529  0.41210  Biso   1.000  C
  C235     1.0000 0.25006  0.61529  0.08790  Biso   1.000  C
  C236     1.0000 0.74994  0.61529  0.41210  Biso   1.000  C
  C237     1.0000 0.24994  0.88471  0.91210  Biso   1.000  C
  C238     1.0000 0.75006  0.88471  0.58790  Biso   1.000  C
  C239     1.0000 0.74994  0.38471  0.91210  Biso   1.000  C
  C240     1.0000 0.25006  0.38471  0.58790  Biso   1.000  C
  H81      1.0000 0.75430  0.09460  0.07870  Biso   1.000  H
  H82      1.0000 0.24570  0.09460  0.42130  Biso   1.000  H
  H83      1.0000 0.25430  0.59460  0.07870  Biso   1.000  H
  H84      1.0000 0.74570  0.59460  0.42130  Biso   1.000  H
  H85      1.0000 0.24570  0.90540  0.92130  Biso   1.000  H
  H86      1.0000 0.75430  0.90540  0.57870  Biso   1.000  H
  H87      1.0000 0.74570  0.40540  0.92130  Biso   1.000  H
  H88      1.0000 0.25430  0.40540  0.57870  Biso   1.000  H
  C241     1.0000 0.75311  0.14221  0.06297  Biso   1.000  C
  C242     1.0000 0.24689  0.14221  0.43703  Biso   1.000  C
  C243     1.0000 0.25311  0.64221  0.06297  Biso   1.000  C
  C244     1.0000 0.74689  0.64221  0.43703  Biso   1.000  C
  C245     1.0000 0.24689  0.85779  0.93703  Biso   1.000  C
  C246     1.0000 0.75311  0.85779  0.56297  Biso   1.000  C
  C247     1.0000 0.74689  0.35779  0.93703  Biso   1.000  C
  C248     1.0000 0.25311  0.35779  0.56297  Biso   1.000  C
  H89      1.0000 0.75940  0.13970  0.03680  Biso   1.000  H
  H90      1.0000 0.24060  0.13970  0.46320  Biso   1.000  H
  H91      1.0000 0.25940  0.63970  0.03680  Biso   1.000  H
  H92      1.0000 0.74060  0.63970  0.46320  Biso   1.000  H
  H93      1.0000 0.24060  0.86030  0.96320  Biso   1.000  H
  H94      1.0000 0.75940  0.86030  0.53680  Biso   1.000  H
  H95      1.0000 0.74060  0.36030  0.96320  Biso   1.000  H
  H96      1.0000 0.25940  0.36030  0.53680  Biso   1.000  H
  C249     1.0000 0.74688  0.17282  0.07670  Biso   1.000  C
  C250     1.0000 0.25312  0.17282  0.42330  Biso   1.000  C
  C251     1.0000 0.24688  0.67282  0.07670  Biso   1.000  C
  C252     1.0000 0.75312  0.67282  0.42330  Biso   1.000  C
  C253     1.0000 0.25312  0.82718  0.92330  Biso   1.000  C
  C254     1.0000 0.74688  0.82718  0.57670  Biso   1.000  C
  C255     1.0000 0.75312  0.32718  0.92330  Biso   1.000  C
  C256     1.0000 0.24688  0.32718  0.57670  Biso   1.000  C
  C257     1.0000 0.73759  0.17650  0.11530  Biso   1.000  C
  C258     1.0000 0.26241  0.17650  0.38470  Biso   1.000  C
  C259     1.0000 0.23759  0.67650  0.11530  Biso   1.000  C
  C260     1.0000 0.76241  0.67650  0.38470  Biso   1.000  C
  C261     1.0000 0.26241  0.82350  0.88470  Biso   1.000  C
  C262     1.0000 0.73759  0.82350  0.61530  Biso   1.000  C
  C263     1.0000 0.76241  0.32350  0.88470  Biso   1.000  C
  C264     1.0000 0.23759  0.32350  0.61530  Biso   1.000  C
  H97      1.0000 0.73340  0.19720  0.12460  Biso   1.000  H
  H98      1.0000 0.26660  0.19720  0.37540  Biso   1.000  H
  H99      1.0000 0.23340  0.69720  0.12460  Biso   1.000  H
  H100     1.0000 0.76660  0.69720  0.37540  Biso   1.000  H
  H101     1.0000 0.26660  0.80280  0.87540  Biso   1.000  H
  H102     1.0000 0.73340  0.80280  0.62460  Biso   1.000  H
  H103     1.0000 0.76660  0.30280  0.87540  Biso   1.000  H
  H104     1.0000 0.23340  0.30280  0.62460  Biso   1.000  H
  C265     1.0000 0.73454  0.14958  0.14028  Biso   1.000  C
  C266     1.0000 0.26546  0.14958  0.35972  Biso   1.000  C
  C267     1.0000 0.23454  0.64958  0.14028  Biso   1.000  C
  C268     1.0000 0.76546  0.64958  0.35972  Biso   1.000  C
  C269     1.0000 0.26546  0.85042  0.85972  Biso   1.000  C
  C270     1.0000 0.73454  0.85042  0.64028  Biso   1.000  C
  C271     1.0000 0.76546  0.35042  0.85972  Biso   1.000  C
  C272     1.0000 0.23454  0.35042  0.64028  Biso   1.000  C
  H105     1.0000 0.72830  0.15210  0.16640  Biso   1.000  H
  H106     1.0000 0.27170  0.15210  0.33360  Biso   1.000  H
  H107     1.0000 0.22830  0.65210  0.16640  Biso   1.000  H
  H108     1.0000 0.77170  0.65210  0.33360  Biso   1.000  H
  H109     1.0000 0.27170  0.84790  0.83360  Biso   1.000  H
  H110     1.0000 0.72830  0.84790  0.66640  Biso   1.000  H
  H111     1.0000 0.77170  0.34790  0.83360  Biso   1.000  H
  H112     1.0000 0.22830  0.34790  0.66640  Biso   1.000  H
  C273     1.0000 0.66100  0.11120  0.45130  Biso   1.000  C
  C274     1.0000 0.33900  0.11120  0.04870  Biso   1.000  C
  C275     1.0000 0.16100  0.61120  0.45130  Biso   1.000  C
  C276     1.0000 0.83900  0.61120  0.04870  Biso   1.000  C
  C277     1.0000 0.33900  0.88880  0.54870  Biso   1.000  C
  C278     1.0000 0.66100  0.88880  0.95130  Biso   1.000  C
  C279     1.0000 0.83900  0.38880  0.54870  Biso   1.000  C
  C280     1.0000 0.16100  0.38880  0.95130  Biso   1.000  C
  C281     1.0000 0.69766  0.00627  0.12650  Biso   1.000  C
  C282     1.0000 0.30234  0.00627  0.37350  Biso   1.000  C
  C283     1.0000 0.19766  0.50627  0.12650  Biso   1.000  C
  C284     1.0000 0.80234  0.50627  0.37350  Biso   1.000  C
  C285     1.0000 0.30234  0.99373  0.87350  Biso   1.000  C
  C286     1.0000 0.69766  0.99373  0.62650  Biso   1.000  C
  C287     1.0000 0.80234  0.49373  0.87350  Biso   1.000  C
  C288     1.0000 0.19766  0.49373  0.62650  Biso   1.000  C
  C289     1.0000 0.66906  0.00994  0.08790  Biso   1.000  C
  C290     1.0000 0.33094  0.00994  0.41210  Biso   1.000  C
  C291     1.0000 0.16906  0.50994  0.08790  Biso   1.000  C
  C292     1.0000 0.83094  0.50994  0.41210  Biso   1.000  C
  C293     1.0000 0.33094  0.99006  0.91210  Biso   1.000  C
  C294     1.0000 0.66906  0.99006  0.58790  Biso   1.000  C
  C295     1.0000 0.83094  0.49006  0.91210  Biso   1.000  C
  C296     1.0000 0.16906  0.49006  0.58790  Biso   1.000  C
  H113     1.0000 0.66010  0.03060  0.07870  Biso   1.000  H
  H114     1.0000 0.33990  0.03060  0.42130  Biso   1.000  H
  H115     1.0000 0.16010  0.53060  0.07870  Biso   1.000  H
  H116     1.0000 0.83990  0.53060  0.42130  Biso   1.000  H
  H117     1.0000 0.33990  0.96940  0.92130  Biso   1.000  H
  H118     1.0000 0.66010  0.96940  0.57870  Biso   1.000  H
  H119     1.0000 0.83990  0.46940  0.92130  Biso   1.000  H
  H120     1.0000 0.16010  0.46940  0.57870  Biso   1.000  H
  C297     1.0000 0.65363  0.98302  0.06286  Biso   1.000  C
  C298     1.0000 0.34637  0.98302  0.43714  Biso   1.000  C
  C299     1.0000 0.15363  0.48302  0.06286  Biso   1.000  C
  C300     1.0000 0.84637  0.48302  0.43714  Biso   1.000  C
  C301     1.0000 0.34637  0.01698  0.93714  Biso   1.000  C
  C302     1.0000 0.65363  0.01698  0.56286  Biso   1.000  C
  C303     1.0000 0.84637  0.51698  0.93714  Biso   1.000  C
  C304     1.0000 0.15363  0.51698  0.56286  Biso   1.000  C
  H121     1.0000 0.63430  0.98550  0.03670  Biso   1.000  H
  H122     1.0000 0.36570  0.98550  0.46330  Biso   1.000  H
  H123     1.0000 0.13430  0.48550  0.03670  Biso   1.000  H
  H124     1.0000 0.86570  0.48550  0.46330  Biso   1.000  H
  H125     1.0000 0.36570  0.01450  0.96330  Biso   1.000  H
  H126     1.0000 0.63430  0.01450  0.53670  Biso   1.000  H
  H127     1.0000 0.86570  0.51450  0.96330  Biso   1.000  H
  H128     1.0000 0.13430  0.51450  0.53670  Biso   1.000  H
  C305     1.0000 0.66681  0.95243  0.07640  Biso   1.000  C
  C306     1.0000 0.33319  0.95243  0.42360  Biso   1.000  C
  C307     1.0000 0.16681  0.45243  0.07640  Biso   1.000  C
  C308     1.0000 0.83319  0.45243  0.42360  Biso   1.000  C
  C309     1.0000 0.33319  0.04757  0.92360  Biso   1.000  C
  C310     1.0000 0.66681  0.04757  0.57640  Biso   1.000  C
  C311     1.0000 0.83319  0.54757  0.92360  Biso   1.000  C
  C312     1.0000 0.16681  0.54757  0.57640  Biso   1.000  C
  C313     1.0000 0.69542  0.94877  0.11510  Biso   1.000  C
  C314     1.0000 0.30458  0.94877  0.38490  Biso   1.000  C
  C315     1.0000 0.19542  0.44877  0.11510  Biso   1.000  C
  C316     1.0000 0.80458  0.44877  0.38490  Biso   1.000  C
  C317     1.0000 0.30458  0.05123  0.88490  Biso   1.000  C
  C318     1.0000 0.69542  0.05123  0.61510  Biso   1.000  C
  C319     1.0000 0.80458  0.55123  0.88490  Biso   1.000  C
  C320     1.0000 0.19542  0.55123  0.61510  Biso   1.000  C
  H129     1.0000 0.70430  0.92810  0.12430  Biso   1.000  H
  H130     1.0000 0.29570  0.92810  0.37570  Biso   1.000  H
  H131     1.0000 0.20430  0.42810  0.12430  Biso   1.000  H
  H132     1.0000 0.79570  0.42810  0.37570  Biso   1.000  H
  H133     1.0000 0.29570  0.07190  0.87570  Biso   1.000  H
  H134     1.0000 0.70430  0.07190  0.62430  Biso   1.000  H
  H135     1.0000 0.79570  0.57190  0.87570  Biso   1.000  H
  H136     1.0000 0.20430  0.57190  0.62430  Biso   1.000  H
  C321     1.0000 0.71085  0.97569  0.14009  Biso   1.000  C
  C322     1.0000 0.28915  0.97569  0.35991  Biso   1.000  C
  C323     1.0000 0.21085  0.47569  0.14009  Biso   1.000  C
  C324     1.0000 0.78915  0.47569  0.35991  Biso   1.000  C
  C325     1.0000 0.28915  0.02431  0.85991  Biso   1.000  C
  C326     1.0000 0.71085  0.02431  0.64009  Biso   1.000  C
  C327     1.0000 0.78915  0.52431  0.85991  Biso   1.000  C
  C328     1.0000 0.21085  0.52431  0.64009  Biso   1.000  C
  H137     1.0000 0.73020  0.97320  0.16620  Biso   1.000  H
  H138     1.0000 0.26980  0.97320  0.33380  Biso   1.000  H
  H139     1.0000 0.23020  0.47320  0.16620  Biso   1.000  H
  H140     1.0000 0.76980  0.47320  0.33380  Biso   1.000  H
  H141     1.0000 0.26980  0.02680  0.83380  Biso   1.000  H
  H142     1.0000 0.73020  0.02680  0.66620  Biso   1.000  H
  H143     1.0000 0.76980  0.52680  0.83380  Biso   1.000  H
  H144     1.0000 0.23020  0.52680  0.66620  Biso   1.000  H
  C329     1.0000 0.41140  0.13800  0.95090  Biso   1.000  C
  C330     1.0000 0.58860  0.13800  0.54910  Biso   1.000  C
  C331     1.0000 0.91140  0.63800  0.95090  Biso   1.000  C
  C332     1.0000 0.08860  0.63800  0.54910  Biso   1.000  C
  C333     1.0000 0.58860  0.86200  0.04910  Biso   1.000  C
  C334     1.0000 0.41140  0.86200  0.45090  Biso   1.000  C
  C335     1.0000 0.08860  0.36200  0.04910  Biso   1.000  C
  C336     1.0000 0.91140  0.36200  0.45090  Biso   1.000  C
  C337     1.0000 0.75645  0.06290  0.27580  Biso   1.000  C
  C338     1.0000 0.24355  0.06290  0.22420  Biso   1.000  C
  C339     1.0000 0.25645  0.56290  0.27580  Biso   1.000  C
  C340     1.0000 0.74355  0.56290  0.22420  Biso   1.000  C
  C341     1.0000 0.24355  0.93710  0.72420  Biso   1.000  C
  C342     1.0000 0.75645  0.93710  0.77580  Biso   1.000  C
  C343     1.0000 0.74355  0.43710  0.72420  Biso   1.000  C
  C344     1.0000 0.25645  0.43710  0.77580  Biso   1.000  C
  C345     1.0000 0.73564  0.07410  0.29952  Biso   1.000  C
  C346     1.0000 0.26436  0.07410  0.20048  Biso   1.000  C
  C347     1.0000 0.23564  0.57410  0.29952  Biso   1.000  C
  C348     1.0000 0.76436  0.57410  0.20048  Biso   1.000  C
  C349     1.0000 0.26436  0.92590  0.70048  Biso   1.000  C
  C350     1.0000 0.73564  0.92590  0.79952  Biso   1.000  C
  C351     1.0000 0.76436  0.42590  0.70048  Biso   1.000  C
  C352     1.0000 0.23564  0.42590  0.79952  Biso   1.000  C
  C353     1.0000 0.74734  0.07371  0.34680  Biso   1.000  C
  C354     1.0000 0.25266  0.07371  0.15320  Biso   1.000  C
  C355     1.0000 0.24734  0.57371  0.34680  Biso   1.000  C
  C356     1.0000 0.75266  0.57371  0.15320  Biso   1.000  C
  C357     1.0000 0.25266  0.92629  0.65320  Biso   1.000  C
  C358     1.0000 0.74734  0.92629  0.84680  Biso   1.000  C
  C359     1.0000 0.75266  0.42629  0.65320  Biso   1.000  C
  C360     1.0000 0.24734  0.42629  0.84680  Biso   1.000  C
  C361     1.0000 0.77985  0.06213  0.37036  Biso   1.000  C
  C362     1.0000 0.22015  0.06213  0.12964  Biso   1.000  C
  C363     1.0000 0.27985  0.56213  0.37036  Biso   1.000  C
  C364     1.0000 0.72015  0.56213  0.12964  Biso   1.000  C
  C365     1.0000 0.22015  0.93787  0.62964  Biso   1.000  C
  C366     1.0000 0.77985  0.93787  0.87036  Biso   1.000  C
  C367     1.0000 0.72015  0.43787  0.62964  Biso   1.000  C
  C368     1.0000 0.27985  0.43787  0.87036  Biso   1.000  C
  H145     1.0000 0.78780  0.06190  0.40230  Biso   1.000  H
  H146     1.0000 0.21220  0.06190  0.09770  Biso   1.000  H
  H147     1.0000 0.28780  0.56190  0.40230  Biso   1.000  H
  H148     1.0000 0.71220  0.56190  0.09770  Biso   1.000  H
  H149     1.0000 0.21220  0.93810  0.59770  Biso   1.000  H
  H150     1.0000 0.78780  0.93810  0.90230  Biso   1.000  H
  H151     1.0000 0.71220  0.43810  0.59770  Biso   1.000  H
  H152     1.0000 0.28780  0.43810  0.90230  Biso   1.000  H
  C369     1.0000 0.80065  0.05093  0.34664  Biso   1.000  C
  C370     1.0000 0.19935  0.05093  0.15336  Biso   1.000  C
  C371     1.0000 0.30065  0.55093  0.34664  Biso   1.000  C
  C372     1.0000 0.69935  0.55093  0.15336  Biso   1.000  C
  C373     1.0000 0.19935  0.94907  0.65336  Biso   1.000  C
  C374     1.0000 0.80065  0.94907  0.84664  Biso   1.000  C
  C375     1.0000 0.69935  0.44907  0.65336  Biso   1.000  C
  C376     1.0000 0.30065  0.44907  0.84664  Biso   1.000  C
  C377     1.0000 0.78895  0.05131  0.29936  Biso   1.000  C
  C378     1.0000 0.21105  0.05131  0.20064  Biso   1.000  C
  C379     1.0000 0.28895  0.55131  0.29936  Biso   1.000  C
  C380     1.0000 0.71105  0.55131  0.20064  Biso   1.000  C
  C381     1.0000 0.21105  0.94869  0.70064  Biso   1.000  C
  C382     1.0000 0.78895  0.94869  0.79936  Biso   1.000  C
  C383     1.0000 0.71105  0.44869  0.70064  Biso   1.000  C
  C384     1.0000 0.28895  0.44869  0.79936  Biso   1.000  C
  C385     1.0000 0.93970  0.01310  0.45180  Biso   1.000  C
  C386     1.0000 0.06030  0.01310  0.04820  Biso   1.000  C
  C387     1.0000 0.43970  0.51310  0.45180  Biso   1.000  C
  C388     1.0000 0.56030  0.51310  0.04820  Biso   1.000  C
  C389     1.0000 0.06030  0.98690  0.54820  Biso   1.000  C
  C390     1.0000 0.93970  0.98690  0.95180  Biso   1.000  C
  C391     1.0000 0.56030  0.48690  0.54820  Biso   1.000  C
  C392     1.0000 0.43970  0.48690  0.95180  Biso   1.000  C
  C393     1.0000 0.83720  0.04085  0.37285  Biso   1.000  C
  C394     1.0000 0.16280  0.04085  0.12715  Biso   1.000  C
  C395     1.0000 0.33720  0.54085  0.37285  Biso   1.000  C
  C396     1.0000 0.66280  0.54085  0.12715  Biso   1.000  C
  C397     1.0000 0.16280  0.95915  0.62715  Biso   1.000  C
  C398     1.0000 0.83720  0.95915  0.87285  Biso   1.000  C
  C399     1.0000 0.66280  0.45915  0.62715  Biso   1.000  C
  C400     1.0000 0.33720  0.45915  0.87285  Biso   1.000  C
  C401     1.0000 0.84296  0.02189  0.41150  Biso   1.000  C
  C402     1.0000 0.15704  0.02189  0.08850  Biso   1.000  C
  C403     1.0000 0.34296  0.52189  0.41150  Biso   1.000  C
  C404     1.0000 0.65704  0.52189  0.08850  Biso   1.000  C
  C405     1.0000 0.15704  0.97811  0.58850  Biso   1.000  C
  C406     1.0000 0.84296  0.97811  0.91150  Biso   1.000  C
  C407     1.0000 0.65704  0.47811  0.58850  Biso   1.000  C
  C408     1.0000 0.34296  0.47811  0.91150  Biso   1.000  C
  H153     1.0000 0.82450  0.01530  0.42040  Biso   1.000  H
  H154     1.0000 0.17550  0.01530  0.07960  Biso   1.000  H
  H155     1.0000 0.32450  0.51530  0.42040  Biso   1.000  H
  H156     1.0000 0.67550  0.51530  0.07960  Biso   1.000  H
  H157     1.0000 0.17550  0.98470  0.57960  Biso   1.000  H
  H158     1.0000 0.82450  0.98470  0.92040  Biso   1.000  H
  H159     1.0000 0.67550  0.48470  0.57960  Biso   1.000  H
  H160     1.0000 0.32450  0.48470  0.92040  Biso   1.000  H
  C409     1.0000 0.87603  0.01274  0.43683  Biso   1.000  C
  C410     1.0000 0.12397  0.01274  0.06317  Biso   1.000  C
  C411     1.0000 0.37603  0.51274  0.43683  Biso   1.000  C
  C412     1.0000 0.62397  0.51274  0.06317  Biso   1.000  C
  C413     1.0000 0.12397  0.98726  0.56317  Biso   1.000  C
  C414     1.0000 0.87603  0.98726  0.93683  Biso   1.000  C
  C415     1.0000 0.62397  0.48726  0.56317  Biso   1.000  C
  C416     1.0000 0.37603  0.48726  0.93683  Biso   1.000  C
  H161     1.0000 0.87990  0.99990  0.46290  Biso   1.000  H
  H162     1.0000 0.12010  0.99990  0.03710  Biso   1.000  H
  H163     1.0000 0.37990  0.49990  0.46290  Biso   1.000  H
  H164     1.0000 0.62010  0.49990  0.03710  Biso   1.000  H
  H165     1.0000 0.12010  0.00010  0.53710  Biso   1.000  H
  H166     1.0000 0.87990  0.00010  0.96290  Biso   1.000  H
  H167     1.0000 0.62010  0.50010  0.53710  Biso   1.000  H
  H168     1.0000 0.37990  0.50010  0.96290  Biso   1.000  H
  C417     1.0000 0.90334  0.02255  0.42357  Biso   1.000  C
  C418     1.0000 0.09666  0.02255  0.07643  Biso   1.000  C
  C419     1.0000 0.40334  0.52255  0.42357  Biso   1.000  C
  C420     1.0000 0.59666  0.52255  0.07643  Biso   1.000  C
  C421     1.0000 0.09666  0.97745  0.57643  Biso   1.000  C
  C422     1.0000 0.90334  0.97745  0.92357  Biso   1.000  C
  C423     1.0000 0.59666  0.47745  0.57643  Biso   1.000  C
  C424     1.0000 0.40334  0.47745  0.92357  Biso   1.000  C
  C425     1.0000 0.89758  0.04151  0.38500  Biso   1.000  C
  C426     1.0000 0.10242  0.04151  0.11500  Biso   1.000  C
  C427     1.0000 0.39758  0.54151  0.38500  Biso   1.000  C
  C428     1.0000 0.60242  0.54151  0.11500  Biso   1.000  C
  C429     1.0000 0.10242  0.95849  0.61500  Biso   1.000  C
  C430     1.0000 0.89758  0.95849  0.88500  Biso   1.000  C
  C431     1.0000 0.60242  0.45849  0.61500  Biso   1.000  C
  C432     1.0000 0.39758  0.45849  0.88500  Biso   1.000  C
  H169     1.0000 0.91600  0.04810  0.37600  Biso   1.000  H
  H170     1.0000 0.08400  0.04810  0.12400  Biso   1.000  H
  H171     1.0000 0.41600  0.54810  0.37600  Biso   1.000  H
  H172     1.0000 0.58400  0.54810  0.12400  Biso   1.000  H
  H173     1.0000 0.08400  0.95190  0.62400  Biso   1.000  H
  H174     1.0000 0.91600  0.95190  0.87600  Biso   1.000  H
  H175     1.0000 0.58400  0.45190  0.62400  Biso   1.000  H
  H176     1.0000 0.41600  0.45190  0.87600  Biso   1.000  H
  C433     1.0000 0.86451  0.05066  0.35960  Biso   1.000  C
  C434     1.0000 0.13549  0.05066  0.14040  Biso   1.000  C
  C435     1.0000 0.36451  0.55066  0.35960  Biso   1.000  C
  C436     1.0000 0.63549  0.55066  0.14040  Biso   1.000  C
  C437     1.0000 0.13549  0.94934  0.64040  Biso   1.000  C
  C438     1.0000 0.86451  0.94934  0.85960  Biso   1.000  C
  C439     1.0000 0.63549  0.44934  0.64040  Biso   1.000  C
  C440     1.0000 0.36451  0.44934  0.85960  Biso   1.000  C
  H177     1.0000 0.86060  0.06350  0.33350  Biso   1.000  H
  H178     1.0000 0.13940  0.06350  0.16650  Biso   1.000  H
  H179     1.0000 0.36060  0.56350  0.33350  Biso   1.000  H
  H180     1.0000 0.63940  0.56350  0.16650  Biso   1.000  H
  H181     1.0000 0.13940  0.93650  0.66650  Biso   1.000  H
  H182     1.0000 0.86060  0.93650  0.83350  Biso   1.000  H
  H183     1.0000 0.63940  0.43650  0.66650  Biso   1.000  H
  H184     1.0000 0.36060  0.43650  0.83350  Biso   1.000  H
  C441     1.0000 0.68910  0.23670  0.95170  Biso   1.000  C
  C442     1.0000 0.31090  0.23670  0.54830  Biso   1.000  C
  C443     1.0000 0.18910  0.73670  0.95170  Biso   1.000  C
  C444     1.0000 0.81090  0.73670  0.54830  Biso   1.000  C
  C445     1.0000 0.31090  0.76330  0.04830  Biso   1.000  C
  C446     1.0000 0.68910  0.76330  0.45170  Biso   1.000  C
  C447     1.0000 0.81090  0.26330  0.04830  Biso   1.000  C
  C448     1.0000 0.18910  0.26330  0.45170  Biso   1.000  C
  C449     1.0000 0.58721  0.20941  0.87360  Biso   1.000  C
  C450     1.0000 0.41279  0.20941  0.62640  Biso   1.000  C
  C451     1.0000 0.08721  0.70941  0.87360  Biso   1.000  C
  C452     1.0000 0.91279  0.70941  0.62640  Biso   1.000  C
  C453     1.0000 0.41279  0.79059  0.12640  Biso   1.000  C
  C454     1.0000 0.58721  0.79059  0.37360  Biso   1.000  C
  C455     1.0000 0.91279  0.29059  0.12640  Biso   1.000  C
  C456     1.0000 0.08721  0.29059  0.37360  Biso   1.000  C
  C457     1.0000 0.59328  0.22838  0.91230  Biso   1.000  C
  C458     1.0000 0.40672  0.22838  0.58770  Biso   1.000  C
  C459     1.0000 0.09328  0.72838  0.91230  Biso   1.000  C
  C460     1.0000 0.90672  0.72838  0.58770  Biso   1.000  C
  C461     1.0000 0.40672  0.77162  0.08770  Biso   1.000  C
  C462     1.0000 0.59328  0.77162  0.41230  Biso   1.000  C
  C463     1.0000 0.90672  0.27162  0.08770  Biso   1.000  C
  C464     1.0000 0.09328  0.27162  0.41230  Biso   1.000  C
  H185     1.0000 0.57500  0.23510  0.92150  Biso   1.000  H
  H186     1.0000 0.42500  0.23510  0.57850  Biso   1.000  H
  H187     1.0000 0.07500  0.73510  0.92150  Biso   1.000  H
  H188     1.0000 0.92500  0.73510  0.57850  Biso   1.000  H
  H189     1.0000 0.42500  0.76490  0.07850  Biso   1.000  H
  H190     1.0000 0.57500  0.76490  0.42150  Biso   1.000  H
  H191     1.0000 0.92500  0.26490  0.07850  Biso   1.000  H
  H192     1.0000 0.07500  0.26490  0.42150  Biso   1.000  H
  C465     1.0000 0.62645  0.23749  0.93725  Biso   1.000  C
  C466     1.0000 0.37355  0.23749  0.56275  Biso   1.000  C
  C467     1.0000 0.12645  0.73749  0.93725  Biso   1.000  C
  C468     1.0000 0.87355  0.73749  0.56275  Biso   1.000  C
  C469     1.0000 0.37355  0.76251  0.06275  Biso   1.000  C
  C470     1.0000 0.62645  0.76251  0.43725  Biso   1.000  C
  C471     1.0000 0.87355  0.26251  0.06275  Biso   1.000  C
  C472     1.0000 0.12645  0.26251  0.43725  Biso   1.000  C
  H193     1.0000 0.63060  0.25030  0.96340  Biso   1.000  H
  H194     1.0000 0.36940  0.25030  0.53660  Biso   1.000  H
  H195     1.0000 0.13060  0.75030  0.96340  Biso   1.000  H
  H196     1.0000 0.86940  0.75030  0.53660  Biso   1.000  H
  H197     1.0000 0.36940  0.74970  0.03660  Biso   1.000  H
  H198     1.0000 0.63060  0.74970  0.46340  Biso   1.000  H
  H199     1.0000 0.86940  0.24970  0.03660  Biso   1.000  H
  H200     1.0000 0.13060  0.24970  0.46340  Biso   1.000  H
  C473     1.0000 0.65354  0.22762  0.92360  Biso   1.000  C
  C474     1.0000 0.34646  0.22762  0.57640  Biso   1.000  C
  C475     1.0000 0.15354  0.72762  0.92360  Biso   1.000  C
  C476     1.0000 0.84646  0.72762  0.57640  Biso   1.000  C
  C477     1.0000 0.34646  0.77238  0.07640  Biso   1.000  C
  C478     1.0000 0.65354  0.77238  0.42360  Biso   1.000  C
  C479     1.0000 0.84646  0.27238  0.07640  Biso   1.000  C
  C480     1.0000 0.15354  0.27238  0.42360  Biso   1.000  C
  C481     1.0000 0.64747  0.20865  0.88490  Biso   1.000  C
  C482     1.0000 0.35253  0.20865  0.61510  Biso   1.000  C
  C483     1.0000 0.14747  0.70865  0.88490  Biso   1.000  C
  C484     1.0000 0.85253  0.70865  0.61510  Biso   1.000  C
  C485     1.0000 0.35253  0.79135  0.11510  Biso   1.000  C
  C486     1.0000 0.64747  0.79135  0.38490  Biso   1.000  C
  C487     1.0000 0.85253  0.29135  0.11510  Biso   1.000  C
  C488     1.0000 0.14747  0.29135  0.38490  Biso   1.000  C
  H201     1.0000 0.66580  0.20200  0.87570  Biso   1.000  H
  H202     1.0000 0.33420  0.20200  0.62430  Biso   1.000  H
  H203     1.0000 0.16580  0.70200  0.87570  Biso   1.000  H
  H204     1.0000 0.83420  0.70200  0.62430  Biso   1.000  H
  H205     1.0000 0.33420  0.79800  0.12430  Biso   1.000  H
  H206     1.0000 0.66580  0.79800  0.37570  Biso   1.000  H
  H207     1.0000 0.83420  0.29800  0.12430  Biso   1.000  H
  H208     1.0000 0.16580  0.29800  0.37570  Biso   1.000  H
  C489     1.0000 0.61431  0.19954  0.85994  Biso   1.000  C
  C490     1.0000 0.38569  0.19954  0.64006  Biso   1.000  C
  C491     1.0000 0.11431  0.69954  0.85994  Biso   1.000  C
  C492     1.0000 0.88569  0.69954  0.64006  Biso   1.000  C
  C493     1.0000 0.38569  0.80046  0.14006  Biso   1.000  C
  C494     1.0000 0.61431  0.80046  0.35994  Biso   1.000  C
  C495     1.0000 0.88569  0.30046  0.14006  Biso   1.000  C
  C496     1.0000 0.11431  0.30046  0.35994  Biso   1.000  C
  H209     1.0000 0.61020  0.18670  0.83380  Biso   1.000  H
  H210     1.0000 0.38980  0.18670  0.66620  Biso   1.000  H
  H211     1.0000 0.11020  0.68670  0.83380  Biso   1.000  H
  H212     1.0000 0.88980  0.68670  0.66620  Biso   1.000  H
  H213     1.0000 0.38980  0.81330  0.16620  Biso   1.000  H
  H214     1.0000 0.61020  0.81330  0.33380  Biso   1.000  H
  H215     1.0000 0.88980  0.31330  0.16620  Biso   1.000  H
  H216     1.0000 0.11020  0.31330  0.33380  Biso   1.000  H
  O1       1.0000 0.66520  0.89666  0.06000  Biso   1.000  O
  O2       1.0000 0.33480  0.89666  0.44000  Biso   1.000  O
  O3       1.0000 0.16520  0.39666  0.06000  Biso   1.000  O
  O4       1.0000 0.83480  0.39666  0.44000  Biso   1.000  O
  O5       1.0000 0.33480  0.10334  0.94000  Biso   1.000  O
  O6       1.0000 0.66520  0.10334  0.56000  Biso   1.000  O
  O7       1.0000 0.83480  0.60334  0.94000  Biso   1.000  O
  O8       1.0000 0.16520  0.60334  0.56000  Biso   1.000  O
  C497     1.0000 0.50642  0.18777  0.77574  Biso   1.000  C
  C498     1.0000 0.49358  0.18777  0.72426  Biso   1.000  C
  C499     1.0000 0.00642  0.68777  0.77574  Biso   1.000  C
  C500     1.0000 0.99358  0.68777  0.72426  Biso   1.000  C
  C501     1.0000 0.49358  0.81223  0.22426  Biso   1.000  C
  C502     1.0000 0.50642  0.81223  0.27574  Biso   1.000  C
  C503     1.0000 0.99358  0.31223  0.22426  Biso   1.000  C
  C504     1.0000 0.00642  0.31223  0.27574  Biso   1.000  C
  C505     1.0000 0.48597  0.17550  0.79930  Biso   1.000  C
  C506     1.0000 0.51403  0.17550  0.70070  Biso   1.000  C
  C507     1.0000 0.98597  0.67550  0.79930  Biso   1.000  C
  C508     1.0000 0.01403  0.67550  0.70070  Biso   1.000  C
  C509     1.0000 0.51403  0.82450  0.20070  Biso   1.000  C
  C510     1.0000 0.48597  0.82450  0.29930  Biso   1.000  C
  C511     1.0000 0.01403  0.32450  0.20070  Biso   1.000  C
  C512     1.0000 0.98597  0.32450  0.29930  Biso   1.000  C
  C513     1.0000 0.49776  0.17534  0.84660  Biso   1.000  C
  C514     1.0000 0.50224  0.17534  0.65340  Biso   1.000  C
  C515     1.0000 0.99776  0.67534  0.84660  Biso   1.000  C
  C516     1.0000 0.00224  0.67534  0.65340  Biso   1.000  C
  C517     1.0000 0.50224  0.82466  0.15340  Biso   1.000  C
  C518     1.0000 0.49776  0.82466  0.34660  Biso   1.000  C
  C519     1.0000 0.00224  0.32466  0.15340  Biso   1.000  C
  C520     1.0000 0.99776  0.32466  0.34660  Biso   1.000  C
  C521     1.0000 0.53000  0.18744  0.87031  Biso   1.000  C
  C522     1.0000 0.47000  0.18744  0.62969  Biso   1.000  C
  C523     1.0000 0.03000  0.68744  0.87031  Biso   1.000  C
  C524     1.0000 0.97000  0.68744  0.62969  Biso   1.000  C
  C525     1.0000 0.47000  0.81256  0.12969  Biso   1.000  C
  C526     1.0000 0.53000  0.81256  0.37031  Biso   1.000  C
  C527     1.0000 0.97000  0.31256  0.12969  Biso   1.000  C
  C528     1.0000 0.03000  0.31256  0.37031  Biso   1.000  C
  H217     1.0000 0.53800  0.18730  0.90230  Biso   1.000  H
  H218     1.0000 0.46200  0.18730  0.59770  Biso   1.000  H
  H219     1.0000 0.03800  0.68730  0.90230  Biso   1.000  H
  H220     1.0000 0.96200  0.68730  0.59770  Biso   1.000  H
  H221     1.0000 0.46200  0.81270  0.09770  Biso   1.000  H
  H222     1.0000 0.53800  0.81270  0.40230  Biso   1.000  H
  H223     1.0000 0.96200  0.31270  0.09770  Biso   1.000  H
  H224     1.0000 0.03800  0.31270  0.40230  Biso   1.000  H
  C529     1.0000 0.55045  0.19971  0.84680  Biso   1.000  C
  C530     1.0000 0.44955  0.19971  0.65320  Biso   1.000  C
  C531     1.0000 0.05045  0.69971  0.84680  Biso   1.000  C
  C532     1.0000 0.94955  0.69971  0.65320  Biso   1.000  C
  C533     1.0000 0.44955  0.80029  0.15320  Biso   1.000  C
  C534     1.0000 0.55045  0.80029  0.34680  Biso   1.000  C
  C535     1.0000 0.94955  0.30029  0.15320  Biso   1.000  C
  C536     1.0000 0.05045  0.30029  0.34680  Biso   1.000  C
  C537     1.0000 0.53866  0.19987  0.79950  Biso   1.000  C
  C538     1.0000 0.46134  0.19987  0.70050  Biso   1.000  C
  C539     1.0000 0.03866  0.69987  0.79950  Biso   1.000  C
  C540     1.0000 0.96134  0.69987  0.70050  Biso   1.000  C
  C541     1.0000 0.46134  0.80013  0.20050  Biso   1.000  C
  C542     1.0000 0.53866  0.80013  0.29950  Biso   1.000  C
  C543     1.0000 0.96134  0.30013  0.20050  Biso   1.000  C
  C544     1.0000 0.03866  0.30013  0.29950  Biso   1.000  C
  O9       1.0000 0.62355  0.92765  0.01500  Biso   1.000  O
  O10      1.0000 0.37645  0.92765  0.48500  Biso   1.000  O
  O11      1.0000 0.12355  0.42765  0.01500  Biso   1.000  O
  O12      1.0000 0.87645  0.42765  0.48500  Biso   1.000  O
  O13      1.0000 0.37645  0.07235  0.98500  Biso   1.000  O
  O14      1.0000 0.62355  0.07235  0.51500  Biso   1.000  O
  O15      1.0000 0.87645  0.57235  0.98500  Biso   1.000  O
  O16      1.0000 0.12355  0.57235  0.51500  Biso   1.000  O
  C545     1.0000 0.72450  0.08424  0.37301  Biso   1.000  C
  C546     1.0000 0.27550  0.08424  0.12699  Biso   1.000  C
  C547     1.0000 0.22450  0.58424  0.37301  Biso   1.000  C
  C548     1.0000 0.77550  0.58424  0.12699  Biso   1.000  C
  C549     1.0000 0.27550  0.91576  0.62699  Biso   1.000  C
  C550     1.0000 0.72450  0.91576  0.87301  Biso   1.000  C
  C551     1.0000 0.77550  0.41576  0.62699  Biso   1.000  C
  C552     1.0000 0.22450  0.41576  0.87301  Biso   1.000  C
  C553     1.0000 0.73787  0.10310  0.41170  Biso   1.000  C
  C554     1.0000 0.26213  0.10310  0.08830  Biso   1.000  C
  C555     1.0000 0.23787  0.60310  0.41170  Biso   1.000  C
  C556     1.0000 0.76213  0.60310  0.08830  Biso   1.000  C
  C557     1.0000 0.26213  0.89690  0.58830  Biso   1.000  C
  C558     1.0000 0.73787  0.89690  0.91170  Biso   1.000  C
  C559     1.0000 0.76213  0.39690  0.58830  Biso   1.000  C
  C560     1.0000 0.23787  0.39690  0.91170  Biso   1.000  C
  H225     1.0000 0.76080  0.10980  0.42090  Biso   1.000  H
  H226     1.0000 0.23920  0.10980  0.07910  Biso   1.000  H
  H227     1.0000 0.26080  0.60980  0.42090  Biso   1.000  H
  H228     1.0000 0.73920  0.60980  0.07910  Biso   1.000  H
  H229     1.0000 0.23920  0.89020  0.57910  Biso   1.000  H
  H230     1.0000 0.76080  0.89020  0.92090  Biso   1.000  H
  H231     1.0000 0.73920  0.39020  0.57910  Biso   1.000  H
  H232     1.0000 0.26080  0.39020  0.92090  Biso   1.000  H
  C561     1.0000 0.71733  0.11211  0.43700  Biso   1.000  C
  C562     1.0000 0.28267  0.11211  0.06300  Biso   1.000  C
  C563     1.0000 0.21733  0.61211  0.43700  Biso   1.000  C
  C564     1.0000 0.78267  0.61211  0.06300  Biso   1.000  C
  C565     1.0000 0.28267  0.88789  0.56300  Biso   1.000  C
  C566     1.0000 0.71733  0.88789  0.93700  Biso   1.000  C
  C567     1.0000 0.78267  0.38789  0.56300  Biso   1.000  C
  C568     1.0000 0.21733  0.38789  0.93700  Biso   1.000  C
  H233     1.0000 0.72640  0.12490  0.46320  Biso   1.000  H
  H234     1.0000 0.27360  0.12490  0.03680  Biso   1.000  H
  H235     1.0000 0.22640  0.62490  0.46320  Biso   1.000  H
  H236     1.0000 0.77360  0.62490  0.03680  Biso   1.000  H
  H237     1.0000 0.27360  0.87510  0.53680  Biso   1.000  H
  H238     1.0000 0.72640  0.87510  0.96320  Biso   1.000  H
  H239     1.0000 0.77360  0.37510  0.53680  Biso   1.000  H
  H240     1.0000 0.22640  0.37510  0.96320  Biso   1.000  H
  C569     1.0000 0.68342  0.10226  0.42351  Biso   1.000  C
  C570     1.0000 0.31658  0.10226  0.07649  Biso   1.000  C
  C571     1.0000 0.18342  0.60226  0.42351  Biso   1.000  C
  C572     1.0000 0.81658  0.60226  0.07649  Biso   1.000  C
  C573     1.0000 0.31658  0.89774  0.57649  Biso   1.000  C
  C574     1.0000 0.68342  0.89774  0.92351  Biso   1.000  C
  C575     1.0000 0.81658  0.39774  0.57649  Biso   1.000  C
  C576     1.0000 0.18342  0.39774  0.92351  Biso   1.000  C
  C577     1.0000 0.67004  0.08340  0.38480  Biso   1.000  C
  C578     1.0000 0.32996  0.08340  0.11520  Biso   1.000  C
  C579     1.0000 0.17004  0.58340  0.38480  Biso   1.000  C
  C580     1.0000 0.82996  0.58340  0.11520  Biso   1.000  C
  C581     1.0000 0.32996  0.91660  0.61520  Biso   1.000  C
  C582     1.0000 0.67004  0.91660  0.88480  Biso   1.000  C
  C583     1.0000 0.82996  0.41660  0.61520  Biso   1.000  C
  C584     1.0000 0.17004  0.41660  0.88480  Biso   1.000  C
  H241     1.0000 0.64710  0.07670  0.37560  Biso   1.000  H
  H242     1.0000 0.35290  0.07670  0.12440  Biso   1.000  H
  H243     1.0000 0.14710  0.57670  0.37560  Biso   1.000  H
  H244     1.0000 0.85290  0.57670  0.12440  Biso   1.000  H
  H245     1.0000 0.35290  0.92330  0.62440  Biso   1.000  H
  H246     1.0000 0.64710  0.92330  0.87560  Biso   1.000  H
  H247     1.0000 0.85290  0.42330  0.62440  Biso   1.000  H
  H248     1.0000 0.14710  0.42330  0.87560  Biso   1.000  H
  C585     1.0000 0.69059  0.07439  0.35952  Biso   1.000  C
  C586     1.0000 0.30941  0.07439  0.14048  Biso   1.000  C
  C587     1.0000 0.19059  0.57439  0.35952  Biso   1.000  C
  C588     1.0000 0.80941  0.57439  0.14048  Biso   1.000  C
  C589     1.0000 0.30941  0.92561  0.64048  Biso   1.000  C
  C590     1.0000 0.69059  0.92561  0.85952  Biso   1.000  C
  C591     1.0000 0.80941  0.42561  0.64048  Biso   1.000  C
  C592     1.0000 0.19059  0.42561  0.85952  Biso   1.000  C
  H249     1.0000 0.68150  0.06160  0.33330  Biso   1.000  H
  H250     1.0000 0.31850  0.06160  0.16670  Biso   1.000  H
  H251     1.0000 0.18150  0.56160  0.33330  Biso   1.000  H
  H252     1.0000 0.81850  0.56160  0.16670  Biso   1.000  H
  H253     1.0000 0.31850  0.93840  0.66670  Biso   1.000  H
  H254     1.0000 0.68150  0.93840  0.83330  Biso   1.000  H
  H255     1.0000 0.81850  0.43840  0.66670  Biso   1.000  H
  H256     1.0000 0.18150  0.43840  0.83330  Biso   1.000  H
  O17      1.0000 0.08434  0.64652  0.44000  Biso   1.000  O
  O18      1.0000 0.91566  0.64652  0.06000  Biso   1.000  O
  O19      1.0000 0.58434  0.14652  0.44000  Biso   1.000  O
  O20      1.0000 0.41566  0.14652  0.06000  Biso   1.000  O
  O21      1.0000 0.91566  0.35348  0.56000  Biso   1.000  O
  O22      1.0000 0.08434  0.35348  0.94000  Biso   1.000  O
  O23      1.0000 0.41566  0.85348  0.56000  Biso   1.000  O
  O24      1.0000 0.58434  0.85348  0.94000  Biso   1.000  O
  C593     1.0000 0.47434  0.16571  0.87302  Biso   1.000  C
  C594     1.0000 0.52566  0.16571  0.62698  Biso   1.000  C
  C595     1.0000 0.97434  0.66571  0.87302  Biso   1.000  C
  C596     1.0000 0.02566  0.66571  0.62698  Biso   1.000  C
  C597     1.0000 0.52566  0.83429  0.12698  Biso   1.000  C
  C598     1.0000 0.47434  0.83429  0.37302  Biso   1.000  C
  C599     1.0000 0.02566  0.33429  0.12698  Biso   1.000  C
  C600     1.0000 0.97434  0.33429  0.37302  Biso   1.000  C
  C601     1.0000 0.44046  0.17566  0.85974  Biso   1.000  C
  C602     1.0000 0.55954  0.17566  0.64026  Biso   1.000  C
  C603     1.0000 0.94046  0.67566  0.85974  Biso   1.000  C
  C604     1.0000 0.05954  0.67566  0.64026  Biso   1.000  C
  C605     1.0000 0.55954  0.82434  0.14026  Biso   1.000  C
  C606     1.0000 0.44046  0.82434  0.35974  Biso   1.000  C
  C607     1.0000 0.05954  0.32434  0.14026  Biso   1.000  C
  C608     1.0000 0.94046  0.32434  0.35974  Biso   1.000  C
  H257     1.0000 0.43140  0.18860  0.83370  Biso   1.000  H
  H258     1.0000 0.56860  0.18860  0.66630  Biso   1.000  H
  H259     1.0000 0.93140  0.68860  0.83370  Biso   1.000  H
  H260     1.0000 0.06860  0.68860  0.66630  Biso   1.000  H
  H261     1.0000 0.56860  0.81140  0.16630  Biso   1.000  H
  H262     1.0000 0.43140  0.81140  0.33370  Biso   1.000  H
  H263     1.0000 0.06860  0.31140  0.16630  Biso   1.000  H
  H264     1.0000 0.93140  0.31140  0.33370  Biso   1.000  H
  C609     1.0000 0.41995  0.16654  0.88500  Biso   1.000  C
  C610     1.0000 0.58005  0.16654  0.61500  Biso   1.000  C
  C611     1.0000 0.91995  0.66654  0.88500  Biso   1.000  C
  C612     1.0000 0.08005  0.66654  0.61500  Biso   1.000  C
  C613     1.0000 0.58005  0.83346  0.11500  Biso   1.000  C
  C614     1.0000 0.41995  0.83346  0.38500  Biso   1.000  C
  C615     1.0000 0.08005  0.33346  0.11500  Biso   1.000  C
  C616     1.0000 0.91995  0.33346  0.38500  Biso   1.000  C
  H265     1.0000 0.39700  0.17330  0.87600  Biso   1.000  H
  H266     1.0000 0.60300  0.17330  0.62400  Biso   1.000  H
  H267     1.0000 0.89700  0.67330  0.87600  Biso   1.000  H
  H268     1.0000 0.10300  0.67330  0.62400  Biso   1.000  H
  H269     1.0000 0.60300  0.82670  0.12400  Biso   1.000  H
  H270     1.0000 0.39700  0.82670  0.37600  Biso   1.000  H
  H271     1.0000 0.10300  0.32670  0.12400  Biso   1.000  H
  H272     1.0000 0.89700  0.32670  0.37600  Biso   1.000  H
  C617     1.0000 0.43331  0.14746  0.92351  Biso   1.000  C
  C618     1.0000 0.56669  0.14746  0.57649  Biso   1.000  C
  C619     1.0000 0.93331  0.64746  0.92351  Biso   1.000  C
  C620     1.0000 0.06669  0.64746  0.57649  Biso   1.000  C
  C621     1.0000 0.56669  0.85254  0.07649  Biso   1.000  C
  C622     1.0000 0.43331  0.85254  0.42351  Biso   1.000  C
  C623     1.0000 0.06669  0.35254  0.07649  Biso   1.000  C
  C624     1.0000 0.93331  0.35254  0.42351  Biso   1.000  C
  C625     1.0000 0.46719  0.13751  0.93679  Biso   1.000  C
  C626     1.0000 0.53281  0.13751  0.56321  Biso   1.000  C
  C627     1.0000 0.96719  0.63751  0.93679  Biso   1.000  C
  C628     1.0000 0.03281  0.63751  0.56321  Biso   1.000  C
  C629     1.0000 0.53281  0.86249  0.06321  Biso   1.000  C
  C630     1.0000 0.46719  0.86249  0.43679  Biso   1.000  C
  C631     1.0000 0.03281  0.36249  0.06321  Biso   1.000  C
  C632     1.0000 0.96719  0.36249  0.43679  Biso   1.000  C
  H273     1.0000 0.47620  0.12460  0.96280  Biso   1.000  H
  H274     1.0000 0.52380  0.12460  0.53720  Biso   1.000  H
  H275     1.0000 0.97620  0.62460  0.96280  Biso   1.000  H
  H276     1.0000 0.02380  0.62460  0.53720  Biso   1.000  H
  H277     1.0000 0.52380  0.87540  0.03720  Biso   1.000  H
  H278     1.0000 0.47620  0.87540  0.46280  Biso   1.000  H
  H279     1.0000 0.02380  0.37540  0.03720  Biso   1.000  H
  H280     1.0000 0.97620  0.37540  0.46280  Biso   1.000  H
  C633     1.0000 0.48770  0.14663  0.91160  Biso   1.000  C
  C634     1.0000 0.51230  0.14663  0.58840  Biso   1.000  C
  C635     1.0000 0.98770  0.64663  0.91160  Biso   1.000  C
  C636     1.0000 0.01230  0.64663  0.58840  Biso   1.000  C
  C637     1.0000 0.51230  0.85337  0.08840  Biso   1.000  C
  C638     1.0000 0.48770  0.85337  0.41160  Biso   1.000  C
  C639     1.0000 0.01230  0.35337  0.08840  Biso   1.000  C
  C640     1.0000 0.98770  0.35337  0.41160  Biso   1.000  C
  H281     1.0000 0.51060  0.13990  0.92050  Biso   1.000  H
  H282     1.0000 0.48940  0.13990  0.57950  Biso   1.000  H
  H283     1.0000 0.01060  0.63990  0.92050  Biso   1.000  H
  H284     1.0000 0.98940  0.63990  0.57950  Biso   1.000  H
  H285     1.0000 0.48940  0.86010  0.07950  Biso   1.000  H
  H286     1.0000 0.51060  0.86010  0.42050  Biso   1.000  H
  H287     1.0000 0.98940  0.36010  0.07950  Biso   1.000  H
  H288     1.0000 0.01060  0.36010  0.42050  Biso   1.000  H
  O25      1.0000 0.12655  0.67762  0.48400  Biso   1.000  O
  O26      1.0000 0.87345  0.67762  0.01600  Biso   1.000  O
  O27      1.0000 0.62655  0.17762  0.48400  Biso   1.000  O
  O28      1.0000 0.37345  0.17762  0.01600  Biso   1.000  O
  O29      1.0000 0.87345  0.32238  0.51600  Biso   1.000  O
  O30      1.0000 0.12655  0.32238  0.98400  Biso   1.000  O
  O31      1.0000 0.37345  0.82238  0.51600  Biso   1.000  O
  O32      1.0000 0.62655  0.82238  0.98400  Biso   1.000  O
  O33      1.0000 0.63082  0.09977  0.43940  Biso   1.000  O
  O34      1.0000 0.36918  0.09977  0.06060  Biso   1.000  O
  O35      1.0000 0.13082  0.59977  0.43940  Biso   1.000  O
  O36      1.0000 0.86918  0.59977  0.06060  Biso   1.000  O
  O37      1.0000 0.36918  0.90023  0.56060  Biso   1.000  O
  O38      1.0000 0.63082  0.90023  0.93940  Biso   1.000  O
  O39      1.0000 0.86918  0.40023  0.56060  Biso   1.000  O
  O40      1.0000 0.13082  0.40023  0.93940  Biso   1.000  O
  O41      1.0000 0.67389  0.13044  0.48460  Biso   1.000  O
  O42      1.0000 0.32611  0.13044  0.01540  Biso   1.000  O
  O43      1.0000 0.17389  0.63044  0.48460  Biso   1.000  O
  O44      1.0000 0.82611  0.63044  0.01540  Biso   1.000  O
  O45      1.0000 0.32611  0.86956  0.51540  Biso   1.000  O
  O46      1.0000 0.67389  0.86956  0.98460  Biso   1.000  O
  O47      1.0000 0.82611  0.36956  0.51540  Biso   1.000  O
  O48      1.0000 0.17389  0.36956  0.98460  Biso   1.000  O
  O49      1.0000 0.42361  0.11946  0.98400  Biso   1.000  O
  O50      1.0000 0.57639  0.11946  0.51600  Biso   1.000  O
  O51      1.0000 0.92361  0.61946  0.98400  Biso   1.000  O
  O52      1.0000 0.07639  0.61946  0.51600  Biso   1.000  O
  O53      1.0000 0.57639  0.88054  0.01600  Biso   1.000  O
  O54      1.0000 0.42361  0.88054  0.48400  Biso   1.000  O
  O55      1.0000 0.07639  0.38054  0.01600  Biso   1.000  O
  O56      1.0000 0.92361  0.38054  0.48400  Biso   1.000  O
  O57      1.0000 0.38205  0.15003  0.94010  Biso   1.000  O
  O58      1.0000 0.61795  0.15003  0.55990  Biso   1.000  O
  O59      1.0000 0.88205  0.65003  0.94010  Biso   1.000  O
  O60      1.0000 0.11795  0.65003  0.55990  Biso   1.000  O
  O61      1.0000 0.61795  0.84997  0.05990  Biso   1.000  O
  O62      1.0000 0.38205  0.84997  0.44010  Biso   1.000  O
  O63      1.0000 0.11795  0.34997  0.05990  Biso   1.000  O
  O64      1.0000 0.88205  0.34997  0.44010  Biso   1.000  O
  O65      1.0000 0.69334  0.25559  0.98430  Biso   1.000  O
  O66      1.0000 0.30666  0.25559  0.51570  Biso   1.000  O
  O67      1.0000 0.19334  0.75559  0.98430  Biso   1.000  O
  O68      1.0000 0.80666  0.75559  0.51570  Biso   1.000  O
  O69      1.0000 0.30666  0.74441  0.01570  Biso   1.000  O
  O70      1.0000 0.69334  0.74441  0.48430  Biso   1.000  O
  O71      1.0000 0.80666  0.24441  0.01570  Biso   1.000  O
  O72      1.0000 0.19334  0.24441  0.48430  Biso   1.000  O
  O73      1.0000 0.71340  0.22460  0.93970  Biso   1.000  O
  O74      1.0000 0.28660  0.22460  0.56030  Biso   1.000  O
  O75      1.0000 0.21340  0.72460  0.93970  Biso   1.000  O
  O76      1.0000 0.78660  0.72460  0.56030  Biso   1.000  O
  O77      1.0000 0.28660  0.77540  0.06030  Biso   1.000  O
  O78      1.0000 0.71340  0.77540  0.43970  Biso   1.000  O
  O79      1.0000 0.78660  0.27540  0.06030  Biso   1.000  O
  O80      1.0000 0.21340  0.27540  0.43970  Biso   1.000  O
  O81      1.0000 0.74013  0.22818  0.06040  Biso   1.000  O
  O82      1.0000 0.25987  0.22818  0.43960  Biso   1.000  O
  O83      1.0000 0.24013  0.72818  0.06040  Biso   1.000  O
  O84      1.0000 0.75987  0.72818  0.43960  Biso   1.000  O
  O85      1.0000 0.25987  0.77182  0.93960  Biso   1.000  O
  O86      1.0000 0.74013  0.77182  0.56040  Biso   1.000  O
  O87      1.0000 0.75987  0.27182  0.93960  Biso   1.000  O
  O88      1.0000 0.24013  0.27182  0.56040  Biso   1.000  O
  O89      1.0000 0.75948  0.19747  0.01570  Biso   1.000  O
  O90      1.0000 0.24052  0.19747  0.48430  Biso   1.000  O
  O91      1.0000 0.25948  0.69747  0.01570  Biso   1.000  O
  O92      1.0000 0.74052  0.69747  0.48430  Biso   1.000  O
  O93      1.0000 0.24052  0.80253  0.98430  Biso   1.000  O
  O94      1.0000 0.75948  0.80253  0.51570  Biso   1.000  O
  O95      1.0000 0.74052  0.30253  0.98430  Biso   1.000  O
  O96      1.0000 0.25948  0.30253  0.51570  Biso   1.000  O
  O97      1.0000 0.94355  0.99453  0.48500  Biso   1.000  O
  O98      1.0000 0.05645  0.99453  0.01500  Biso   1.000  O
  O99      1.0000 0.44355  0.49453  0.48500  Biso   1.000  O
  O100     1.0000 0.55645  0.49453  0.01500  Biso   1.000  O
  O101     1.0000 0.05645  0.00547  0.51500  Biso   1.000  O
  O102     1.0000 0.94355  0.00547  0.98500  Biso   1.000  O
  O103     1.0000 0.55645  0.50547  0.51500  Biso   1.000  O
  O104     1.0000 0.44355  0.50547  0.98500  Biso   1.000  O
  O105     1.0000 0.96394  0.02511  0.43940  Biso   1.000  O
  O106     1.0000 0.03606  0.02511  0.06060  Biso   1.000  O
  O107     1.0000 0.46394  0.52511  0.43940  Biso   1.000  O
  O108     1.0000 0.53606  0.52511  0.06060  Biso   1.000  O
  O109     1.0000 0.03606  0.97489  0.56060  Biso   1.000  O
  O110     1.0000 0.96394  0.97489  0.93940  Biso   1.000  O
  O111     1.0000 0.53606  0.47489  0.56060  Biso   1.000  O
  O112     1.0000 0.46394  0.47489  0.93940  Biso   1.000  O
  O113     1.0000 0.99036  0.94726  0.48430  Biso   1.000  O
  O114     1.0000 0.00964  0.94726  0.01570  Biso   1.000  O
  O115     1.0000 0.49036  0.44726  0.48430  Biso   1.000  O
  O116     1.0000 0.50964  0.44726  0.01570  Biso   1.000  O
  O117     1.0000 0.00964  0.05274  0.51570  Biso   1.000  O
  O118     1.0000 0.99036  0.05274  0.98430  Biso   1.000  O
  O119     1.0000 0.50964  0.55274  0.51570  Biso   1.000  O
  O120     1.0000 0.49036  0.55274  0.98430  Biso   1.000  O
  O121     1.0000 0.01014  0.97834  0.43931  Biso   1.000  O
  O122     1.0000 0.98986  0.97834  0.06069  Biso   1.000  O
  O123     1.0000 0.51014  0.47834  0.43931  Biso   1.000  O
  O124     1.0000 0.48986  0.47834  0.06069  Biso   1.000  O
  O125     1.0000 0.98986  0.02166  0.56069  Biso   1.000  O
  O126     1.0000 0.01014  0.02166  0.93931  Biso   1.000  O
  O127     1.0000 0.48986  0.52166  0.56069  Biso   1.000  O
  O128     1.0000 0.51014  0.52166  0.93931  Biso   1.000  O
  O129     1.0000 0.80910  0.03810  0.27620  Biso   1.000  O
  O130     1.0000 0.19090  0.03810  0.22380  Biso   1.000  O
  O131     1.0000 0.30910  0.53810  0.27620  Biso   1.000  O
  O132     1.0000 0.69090  0.53810  0.22380  Biso   1.000  O
  O133     1.0000 0.19090  0.96190  0.72380  Biso   1.000  O
  O134     1.0000 0.80910  0.96190  0.77620  Biso   1.000  O
  O135     1.0000 0.69090  0.46190  0.72380  Biso   1.000  O
  O136     1.0000 0.30910  0.46190  0.77620  Biso   1.000  O
  O137     1.0000 0.76740  0.11560  0.22520  Biso   1.000  O
  O138     1.0000 0.23260  0.11560  0.27480  Biso   1.000  O
  O139     1.0000 0.26740  0.61560  0.22520  Biso   1.000  O
  O140     1.0000 0.73260  0.61560  0.27480  Biso   1.000  O
  O141     1.0000 0.23260  0.88440  0.77480  Biso   1.000  O
  O142     1.0000 0.76740  0.88440  0.72520  Biso   1.000  O
  O143     1.0000 0.73260  0.38440  0.77480  Biso   1.000  O
  O144     1.0000 0.26740  0.38440  0.72520  Biso   1.000  O
  O145     1.0000 0.70350  0.08570  0.27530  Biso   1.000  O
  O146     1.0000 0.29650  0.08570  0.22470  Biso   1.000  O
  O147     1.0000 0.20350  0.58570  0.27530  Biso   1.000  O
  O148     1.0000 0.79650  0.58570  0.22470  Biso   1.000  O
  O149     1.0000 0.29650  0.91430  0.72470  Biso   1.000  O
  O150     1.0000 0.70350  0.91430  0.77530  Biso   1.000  O
  O151     1.0000 0.79650  0.41430  0.72470  Biso   1.000  O
  O152     1.0000 0.20350  0.41430  0.77530  Biso   1.000  O
  O153     1.0000 0.71940  0.00960  0.22420  Biso   1.000  O
  O154     1.0000 0.28060  0.00960  0.27580  Biso   1.000  O
  O155     1.0000 0.21940  0.50960  0.22420  Biso   1.000  O
  O156     1.0000 0.78060  0.50960  0.27580  Biso   1.000  O
  O157     1.0000 0.28060  0.99040  0.77580  Biso   1.000  O
  O158     1.0000 0.71940  0.99040  0.72420  Biso   1.000  O
  O159     1.0000 0.78060  0.49040  0.77580  Biso   1.000  O
  O160     1.0000 0.21940  0.49040  0.72420  Biso   1.000  O
  O161     1.0000 0.98290  0.86600  0.27620  Biso   1.000  O
  O162     1.0000 0.01710  0.86600  0.22380  Biso   1.000  O
  O163     1.0000 0.48290  0.36600  0.27620  Biso   1.000  O
  O164     1.0000 0.51710  0.36600  0.22380  Biso   1.000  O
  O165     1.0000 0.01710  0.13400  0.72380  Biso   1.000  O
  O166     1.0000 0.98290  0.13400  0.77620  Biso   1.000  O
  O167     1.0000 0.51710  0.63400  0.72380  Biso   1.000  O
  O168     1.0000 0.48290  0.63400  0.77620  Biso   1.000  O
  O169     1.0000 0.02660  0.75830  0.27480  Biso   1.000  O
  O170     1.0000 0.97340  0.75830  0.22520  Biso   1.000  O
  O171     1.0000 0.52660  0.25830  0.27480  Biso   1.000  O
  O172     1.0000 0.47340  0.25830  0.22520  Biso   1.000  O
  O173     1.0000 0.97340  0.24170  0.72520  Biso   1.000  O
  O174     1.0000 0.02660  0.24170  0.77480  Biso   1.000  O
  O175     1.0000 0.47340  0.74170  0.72520  Biso   1.000  O
  O176     1.0000 0.52660  0.74170  0.77480  Biso   1.000  O
  O177     1.0000 0.56000  0.21060  0.77570  Biso   1.000  O
  O178     1.0000 0.44000  0.21060  0.72430  Biso   1.000  O
  O179     1.0000 0.06000  0.71060  0.77570  Biso   1.000  O
  O180     1.0000 0.94000  0.71060  0.72430  Biso   1.000  O
  O181     1.0000 0.44000  0.78940  0.22430  Biso   1.000  O
  O182     1.0000 0.56000  0.78940  0.27570  Biso   1.000  O
  O183     1.0000 0.94000  0.28940  0.22430  Biso   1.000  O
  O184     1.0000 0.06000  0.28940  0.27570  Biso   1.000  O
  O185     1.0000 0.04690  0.33560  0.22410  Biso   1.000  O
  O186     1.0000 0.95310  0.33560  0.27590  Biso   1.000  O
  O187     1.0000 0.54690  0.83560  0.22410  Biso   1.000  O
  O188     1.0000 0.45310  0.83560  0.27590  Biso   1.000  O
  O189     1.0000 0.95310  0.66440  0.77590  Biso   1.000  O
  O190     1.0000 0.04690  0.66440  0.72410  Biso   1.000  O
  O191     1.0000 0.45310  0.16440  0.77590  Biso   1.000  O
  O192     1.0000 0.54690  0.16440  0.72410  Biso   1.000  O
  O193     1.0000 0.07600  0.41530  0.24200  Biso   1.000  O
  O194     1.0000 0.92400  0.41530  0.25800  Biso   1.000  O
  O195     1.0000 0.57600  0.91530  0.24200  Biso   1.000  O
  O196     1.0000 0.42400  0.91530  0.25800  Biso   1.000  O
  O197     1.0000 0.92400  0.58470  0.75800  Biso   1.000  O
  O198     1.0000 0.07600  0.58470  0.74200  Biso   1.000  O
  O199     1.0000 0.42400  0.08470  0.75800  Biso   1.000  O
  O200     1.0000 0.57600  0.08470  0.74200  Biso   1.000  O
  O201     1.0000 0.03680  0.48280  0.23140  Biso   1.000  O
  O202     1.0000 0.96320  0.48280  0.26860  Biso   1.000  O
  O203     1.0000 0.53680  0.98280  0.23140  Biso   1.000  O
  O204     1.0000 0.46320  0.98280  0.26860  Biso   1.000  O
  O205     1.0000 0.96320  0.51720  0.76860  Biso   1.000  O
  O206     1.0000 0.03680  0.51720  0.73140  Biso   1.000  O
  O207     1.0000 0.46320  0.01720  0.76860  Biso   1.000  O
  O208     1.0000 0.53680  0.01720  0.73140  Biso   1.000  O
  O209     1.0000 0.55930  0.28940  0.70510  Biso   1.000  O
  O210     1.0000 0.44070  0.28940  0.79490  Biso   1.000  O
  O211     1.0000 0.05930  0.78940  0.70510  Biso   1.000  O
  O212     1.0000 0.94070  0.78940  0.79490  Biso   1.000  O
  O213     1.0000 0.44070  0.71060  0.29490  Biso   1.000  O
  O214     1.0000 0.55930  0.71060  0.20510  Biso   1.000  O
  O215     1.0000 0.94070  0.21060  0.29490  Biso   1.000  O
  O216     1.0000 0.05930  0.21060  0.20510  Biso   1.000  O
  O217     1.0000 0.54900  0.37360  0.75530  Biso   1.000  O
  O218     1.0000 0.45100  0.37360  0.74470  Biso   1.000  O
  O219     1.0000 0.04900  0.87360  0.75530  Biso   1.000  O
  O220     1.0000 0.95100  0.87360  0.74470  Biso   1.000  O
  O221     1.0000 0.45100  0.62640  0.24470  Biso   1.000  O
  O222     1.0000 0.54900  0.62640  0.25530  Biso   1.000  O
  O223     1.0000 0.95100  0.12640  0.24470  Biso   1.000  O
  O224     1.0000 0.04900  0.12640  0.25530  Biso   1.000  O
  O225     1.0000 0.09320  0.73330  0.25590  Biso   1.000  O
  O226     1.0000 0.90680  0.73330  0.24410  Biso   1.000  O
  O227     1.0000 0.59320  0.23330  0.25590  Biso   1.000  O
  O228     1.0000 0.40680  0.23330  0.24410  Biso   1.000  O
  O229     1.0000 0.90680  0.26670  0.74410  Biso   1.000  O
  O230     1.0000 0.09320  0.26670  0.75590  Biso   1.000  O
  O231     1.0000 0.40680  0.76670  0.74410  Biso   1.000  O
  O232     1.0000 0.59320  0.76670  0.75590  Biso   1.000  O
  O233     1.0000 0.02580  0.68580  0.25210  Biso   1.000  O
  O234     1.0000 0.97420  0.68580  0.24790  Biso   1.000  O
  O235     1.0000 0.52580  0.18580  0.25210  Biso   1.000  O
  O236     1.0000 0.47420  0.18580  0.24790  Biso   1.000  O
  O237     1.0000 0.97420  0.31420  0.74790  Biso   1.000  O
  O238     1.0000 0.02580  0.31420  0.75210  Biso   1.000  O
  O239     1.0000 0.47420  0.81420  0.74790  Biso   1.000  O
  O240     1.0000 0.52580  0.81420  0.75210  Biso   1.000  O
  O241     1.0000 0.93840  0.91520  0.23900  Biso   1.000  O
  O242     1.0000 0.06160  0.91520  0.26100  Biso   1.000  O
  O243     1.0000 0.43840  0.41520  0.23900  Biso   1.000  O
  O244     1.0000 0.56160  0.41520  0.26100  Biso   1.000  O
  O245     1.0000 0.06160  0.08480  0.76100  Biso   1.000  O
  O246     1.0000 0.93840  0.08480  0.73900  Biso   1.000  O
  O247     1.0000 0.56160  0.58480  0.76100  Biso   1.000  O
  O248     1.0000 0.43840  0.58480  0.73900  Biso   1.000  O
  O249     1.0000 0.01080  0.97380  0.31250  Biso   1.000  O
  O250     1.0000 0.98920  0.97380  0.18750  Biso   1.000  O
  O251     1.0000 0.51080  0.47380  0.31250  Biso   1.000  O
  O252     1.0000 0.48920  0.47380  0.18750  Biso   1.000  O
  O253     1.0000 0.98920  0.02620  0.68750  Biso   1.000  O
  O254     1.0000 0.01080  0.02620  0.81250  Biso   1.000  O
  O255     1.0000 0.48920  0.52620  0.68750  Biso   1.000  O
  O256     1.0000 0.51080  0.52620  0.81250  Biso   1.000  O
  O257     1.0000 0.84840  0.00860  0.23590  Biso   1.000  O
  O258     1.0000 0.15160  0.00860  0.26410  Biso   1.000  O
  O259     1.0000 0.34840  0.50860  0.23590  Biso   1.000  O
  O260     1.0000 0.65160  0.50860  0.26410  Biso   1.000  O
  O261     1.0000 0.15160  0.99140  0.76410  Biso   1.000  O
  O262     1.0000 0.84840  0.99140  0.73590  Biso   1.000  O
  O263     1.0000 0.65160  0.49140  0.76410  Biso   1.000  O
  O264     1.0000 0.34840  0.49140  0.73590  Biso   1.000  O
  O265     1.0000 0.87530  0.10310  0.25160  Biso   1.000  O
  O266     1.0000 0.12470  0.10310  0.24840  Biso   1.000  O
  O267     1.0000 0.37530  0.60310  0.25160  Biso   1.000  O
  O268     1.0000 0.62470  0.60310  0.24840  Biso   1.000  O
  O269     1.0000 0.12470  0.89690  0.74840  Biso   1.000  O
  O270     1.0000 0.87530  0.89690  0.75160  Biso   1.000  O
  O271     1.0000 0.62470  0.39690  0.74840  Biso   1.000  O
  O272     1.0000 0.37530  0.39690  0.75160  Biso   1.000  O
  O273     1.0000 0.79500  0.17530  0.22150  Biso   1.000  O
  O274     1.0000 0.20500  0.17530  0.27850  Biso   1.000  O
  O275     1.0000 0.29500  0.67530  0.22150  Biso   1.000  O
  O276     1.0000 0.70500  0.67530  0.27850  Biso   1.000  O
  O277     1.0000 0.20500  0.82470  0.77850  Biso   1.000  O
  O278     1.0000 0.79500  0.82470  0.72150  Biso   1.000  O
  O279     1.0000 0.70500  0.32470  0.77850  Biso   1.000  O
  O280     1.0000 0.29500  0.32470  0.72150  Biso   1.000  O
  O281     1.0000 0.71460  0.18400  0.24470  Biso   1.000  O
  O282     1.0000 0.28540  0.18400  0.25530  Biso   1.000  O
  O283     1.0000 0.21460  0.68400  0.24470  Biso   1.000  O
  O284     1.0000 0.78540  0.68400  0.25530  Biso   1.000  O
  O285     1.0000 0.28540  0.81600  0.75530  Biso   1.000  O
  O286     1.0000 0.71460  0.81600  0.74470  Biso   1.000  O
  O287     1.0000 0.78540  0.31600  0.75530  Biso   1.000  O
  O288     1.0000 0.21460  0.31600  0.74470  Biso   1.000  O
  O289     1.0000 0.65030  0.11820  0.28190  Biso   1.000  O
  O290     1.0000 0.34970  0.11820  0.21810  Biso   1.000  O
  O291     1.0000 0.15030  0.61820  0.28190  Biso   1.000  O
  O292     1.0000 0.84970  0.61820  0.21810  Biso   1.000  O
  O293     1.0000 0.34970  0.88180  0.71810  Biso   1.000  O
  O294     1.0000 0.65030  0.88180  0.78190  Biso   1.000  O
  O295     1.0000 0.84970  0.38180  0.71810  Biso   1.000  O
  O296     1.0000 0.15030  0.38180  0.78190  Biso   1.000  O
  O297     1.0000 0.63470  0.02100  0.26170  Biso   1.000  O
  O298     1.0000 0.36530  0.02100  0.23830  Biso   1.000  O
  O299     1.0000 0.13470  0.52100  0.26170  Biso   1.000  O
  O300     1.0000 0.86530  0.52100  0.23830  Biso   1.000  O
  O301     1.0000 0.36530  0.97900  0.73830  Biso   1.000  O
  O302     1.0000 0.63470  0.97900  0.76170  Biso   1.000  O
  O303     1.0000 0.86530  0.47900  0.73830  Biso   1.000  O
  O304     1.0000 0.13470  0.47900  0.76170  Biso   1.000  O
  O305     1.0000 0.69540  0.94940  0.24060  Biso   1.000  O
  O306     1.0000 0.30460  0.94940  0.25940  Biso   1.000  O
  O307     1.0000 0.19540  0.44940  0.24060  Biso   1.000  O
  O308     1.0000 0.80460  0.44940  0.25940  Biso   1.000  O
  O309     1.0000 0.30460  0.05060  0.75940  Biso   1.000  O
  O310     1.0000 0.69540  0.05060  0.74060  Biso   1.000  O
  O311     1.0000 0.80460  0.55060  0.75940  Biso   1.000  O
  O312     1.0000 0.19540  0.55060  0.74060  Biso   1.000  O
  O313     1.0000 0.78360  0.93560  0.24310  Biso   1.000  O
  O314     1.0000 0.21640  0.93560  0.25690  Biso   1.000  O
  O315     1.0000 0.28360  0.43560  0.24310  Biso   1.000  O
  O316     1.0000 0.71640  0.43560  0.25690  Biso   1.000  O
  O317     1.0000 0.21640  0.06440  0.75690  Biso   1.000  O
  O318     1.0000 0.78360  0.06440  0.74310  Biso   1.000  O
  O319     1.0000 0.71640  0.56440  0.75690  Biso   1.000  O
  O320     1.0000 0.28360  0.56440  0.74310  Biso   1.000  O
  C641     1.0000 0.80890  0.00490  0.27920  Biso   1.000  C
  C642     1.0000 0.19110  0.00490  0.22080  Biso   1.000  C
  C643     1.0000 0.30890  0.50490  0.27920  Biso   1.000  C
  C644     1.0000 0.69110  0.50490  0.22080  Biso   1.000  C
  C645     1.0000 0.19110  0.99510  0.72080  Biso   1.000  C
  C646     1.0000 0.80890  0.99510  0.77920  Biso   1.000  C
  C647     1.0000 0.69110  0.49510  0.72080  Biso   1.000  C
  C648     1.0000 0.30890  0.49510  0.77920  Biso   1.000  C
  C649     1.0000 0.80130  0.11700  0.22750  Biso   1.000  C
  C650     1.0000 0.19870  0.11700  0.27250  Biso   1.000  C
  C651     1.0000 0.30130  0.61700  0.22750  Biso   1.000  C
  C652     1.0000 0.69870  0.61700  0.27250  Biso   1.000  C
  C653     1.0000 0.19870  0.88300  0.77250  Biso   1.000  C
  C654     1.0000 0.80130  0.88300  0.72750  Biso   1.000  C
  C655     1.0000 0.69870  0.38300  0.77250  Biso   1.000  C
  C656     1.0000 0.30130  0.38300  0.72750  Biso   1.000  C
  C657     1.0000 0.70250  0.11910  0.27380  Biso   1.000  C
  C658     1.0000 0.29750  0.11910  0.22620  Biso   1.000  C
  C659     1.0000 0.20250  0.61910  0.27380  Biso   1.000  C
  C660     1.0000 0.79750  0.61910  0.22620  Biso   1.000  C
  C661     1.0000 0.29750  0.88090  0.72620  Biso   1.000  C
  C662     1.0000 0.70250  0.88090  0.77380  Biso   1.000  C
  C663     1.0000 0.79750  0.38090  0.72620  Biso   1.000  C
  C664     1.0000 0.20250  0.38090  0.77380  Biso   1.000  C
  C665     1.0000 0.68660  0.00970  0.22800  Biso   1.000  C
  C666     1.0000 0.31340  0.00970  0.27200  Biso   1.000  C
  C667     1.0000 0.18660  0.50970  0.22800  Biso   1.000  C
  C668     1.0000 0.81340  0.50970  0.27200  Biso   1.000  C
  C669     1.0000 0.31340  0.99030  0.77200  Biso   1.000  C
  C670     1.0000 0.68660  0.99030  0.72800  Biso   1.000  C
  C671     1.0000 0.81340  0.49030  0.77200  Biso   1.000  C
  C672     1.0000 0.18660  0.49030  0.72800  Biso   1.000  C
  C673     1.0000 0.94880  0.86190  0.27470  Biso   1.000  C
  C674     1.0000 0.05120  0.86190  0.22530  Biso   1.000  C
  C675     1.0000 0.44880  0.36190  0.27470  Biso   1.000  C
  C676     1.0000 0.55120  0.36190  0.22530  Biso   1.000  C
  C677     1.0000 0.05120  0.13810  0.72530  Biso   1.000  C
  C678     1.0000 0.94880  0.13810  0.77470  Biso   1.000  C
  C679     1.0000 0.55120  0.63810  0.72530  Biso   1.000  C
  C680     1.0000 0.44880  0.63810  0.77470  Biso   1.000  C
  C681     1.0000 0.06040  0.75760  0.27540  Biso   1.000  C
  C682     1.0000 0.93960  0.75760  0.22460  Biso   1.000  C
  C683     1.0000 0.56040  0.25760  0.27540  Biso   1.000  C
  C684     1.0000 0.43960  0.25760  0.22460  Biso   1.000  C
  C685     1.0000 0.93960  0.24240  0.72460  Biso   1.000  C
  C686     1.0000 0.06040  0.24240  0.77540  Biso   1.000  C
  C687     1.0000 0.43960  0.74240  0.72460  Biso   1.000  C
  C688     1.0000 0.56040  0.74240  0.77540  Biso   1.000  C
  C689     1.0000 0.55930  0.24400  0.76480  Biso   1.000  C
  C690     1.0000 0.44070  0.24400  0.73520  Biso   1.000  C
  C691     1.0000 0.05930  0.74400  0.76480  Biso   1.000  C
  C692     1.0000 0.94070  0.74400  0.73520  Biso   1.000  C
  C693     1.0000 0.44070  0.75600  0.23520  Biso   1.000  C
  C694     1.0000 0.55930  0.75600  0.26480  Biso   1.000  C
  C695     1.0000 0.94070  0.25600  0.23520  Biso   1.000  C
  C696     1.0000 0.05930  0.25600  0.26480  Biso   1.000  C
  C697     1.0000 0.04860  0.36910  0.22040  Biso   1.000  C
  C698     1.0000 0.95140  0.36910  0.27960  Biso   1.000  C
  C699     1.0000 0.54860  0.86910  0.22040  Biso   1.000  C
  C700     1.0000 0.45140  0.86910  0.27960  Biso   1.000  C
  C701     1.0000 0.95140  0.63090  0.77960  Biso   1.000  C
  C702     1.0000 0.04860  0.63090  0.72040  Biso   1.000  C
  C703     1.0000 0.45140  0.13090  0.77960  Biso   1.000  C
  C704     1.0000 0.54860  0.13090  0.72040  Biso   1.000  C
  C705     1.0000 0.08020  0.37940  0.25090  Biso   1.000  C
  C706     1.0000 0.91980  0.37940  0.24910  Biso   1.000  C
  C707     1.0000 0.58020  0.87940  0.25090  Biso   1.000  C
  C708     1.0000 0.41980  0.87940  0.24910  Biso   1.000  C
  C709     1.0000 0.91980  0.62060  0.74910  Biso   1.000  C
  C710     1.0000 0.08020  0.62060  0.75090  Biso   1.000  C
  C711     1.0000 0.41980  0.12060  0.74910  Biso   1.000  C
  C712     1.0000 0.58020  0.12060  0.75090  Biso   1.000  C
  C713     1.0000 0.04380  0.42730  0.24820  Biso   1.000  C
  C714     1.0000 0.95620  0.42730  0.25180  Biso   1.000  C
  C715     1.0000 0.54380  0.92730  0.24820  Biso   1.000  C
  C716     1.0000 0.45620  0.92730  0.25180  Biso   1.000  C
  C717     1.0000 0.95620  0.57270  0.75180  Biso   1.000  C
  C718     1.0000 0.04380  0.57270  0.74820  Biso   1.000  C
  C719     1.0000 0.45620  0.07270  0.75180  Biso   1.000  C
  C720     1.0000 0.54380  0.07270  0.74820  Biso   1.000  C
  C721     1.0000 0.03340  0.45040  0.20860  Biso   1.000  C
  C722     1.0000 0.96660  0.45040  0.29140  Biso   1.000  C
  C723     1.0000 0.53340  0.95040  0.20860  Biso   1.000  C
  C724     1.0000 0.46660  0.95040  0.29140  Biso   1.000  C
  C725     1.0000 0.96660  0.54960  0.79140  Biso   1.000  C
  C726     1.0000 0.03340  0.54960  0.70860  Biso   1.000  C
  C727     1.0000 0.46660  0.04960  0.79140  Biso   1.000  C
  C728     1.0000 0.53340  0.04960  0.70860  Biso   1.000  C
  C729     1.0000 0.99930  0.47770  0.22580  Biso   1.000  C
  C730     1.0000 0.00070  0.47770  0.27420  Biso   1.000  C
  C731     1.0000 0.49930  0.97770  0.22580  Biso   1.000  C
  C732     1.0000 0.50070  0.97770  0.27420  Biso   1.000  C
  C733     1.0000 0.00070  0.52230  0.77420  Biso   1.000  C
  C734     1.0000 0.99930  0.52230  0.72580  Biso   1.000  C
  C735     1.0000 0.50070  0.02230  0.77420  Biso   1.000  C
  C736     1.0000 0.49930  0.02230  0.72580  Biso   1.000  C
  C737     1.0000 0.55540  0.25530  0.71970  Biso   1.000  C
  C738     1.0000 0.44460  0.25530  0.78030  Biso   1.000  C
  C739     1.0000 0.05540  0.75530  0.71970  Biso   1.000  C
  C740     1.0000 0.94460  0.75530  0.78030  Biso   1.000  C
  C741     1.0000 0.44460  0.74470  0.28030  Biso   1.000  C
  C742     1.0000 0.55540  0.74470  0.21970  Biso   1.000  C
  C743     1.0000 0.94460  0.24470  0.28030  Biso   1.000  C
  C744     1.0000 0.05540  0.24470  0.21970  Biso   1.000  C
  C745     1.0000 0.55600  0.31720  0.73360  Biso   1.000  C
  C746     1.0000 0.44400  0.31720  0.76640  Biso   1.000  C
  C747     1.0000 0.05600  0.81720  0.73360  Biso   1.000  C
  C748     1.0000 0.94400  0.81720  0.76640  Biso   1.000  C
  C749     1.0000 0.44400  0.68280  0.26640  Biso   1.000  C
  C750     1.0000 0.55600  0.68280  0.23360  Biso   1.000  C
  C751     1.0000 0.94400  0.18280  0.26640  Biso   1.000  C
  C752     1.0000 0.05600  0.18280  0.23360  Biso   1.000  C
  C753     1.0000 0.53420  0.34700  0.72030  Biso   1.000  C
  C754     1.0000 0.46580  0.34700  0.77970  Biso   1.000  C
  C755     1.0000 0.03420  0.84700  0.72030  Biso   1.000  C
  C756     1.0000 0.96580  0.84700  0.77970  Biso   1.000  C
  C757     1.0000 0.46580  0.65300  0.27970  Biso   1.000  C
  C758     1.0000 0.53420  0.65300  0.22030  Biso   1.000  C
  C759     1.0000 0.96580  0.15300  0.27970  Biso   1.000  C
  C760     1.0000 0.03420  0.15300  0.22030  Biso   1.000  C
  C761     1.0000 0.51730  0.39350  0.74720  Biso   1.000  C
  C762     1.0000 0.48270  0.39350  0.75280  Biso   1.000  C
  C763     1.0000 0.01730  0.89350  0.74720  Biso   1.000  C
  C764     1.0000 0.98270  0.89350  0.75280  Biso   1.000  C
  C765     1.0000 0.48270  0.60650  0.25280  Biso   1.000  C
  C766     1.0000 0.51730  0.60650  0.24720  Biso   1.000  C
  C767     1.0000 0.98270  0.10650  0.25280  Biso   1.000  C
  C768     1.0000 0.01730  0.10650  0.24720  Biso   1.000  C
  C769     1.0000 0.09490  0.76480  0.28130  Biso   1.000  C
  C770     1.0000 0.90510  0.76480  0.21870  Biso   1.000  C
  C771     1.0000 0.59490  0.26480  0.28130  Biso   1.000  C
  C772     1.0000 0.40510  0.26480  0.21870  Biso   1.000  C
  C773     1.0000 0.90510  0.23520  0.71870  Biso   1.000  C
  C774     1.0000 0.09490  0.23520  0.78130  Biso   1.000  C
  C775     1.0000 0.40510  0.73520  0.71870  Biso   1.000  C
  C776     1.0000 0.59490  0.73520  0.78130  Biso   1.000  C
  C777     1.0000 0.05780  0.72520  0.21110  Biso   1.000  C
  C778     1.0000 0.94220  0.72520  0.28890  Biso   1.000  C
  C779     1.0000 0.55780  0.22520  0.21110  Biso   1.000  C
  C780     1.0000 0.44220  0.22520  0.28890  Biso   1.000  C
  C781     1.0000 0.94220  0.27480  0.78890  Biso   1.000  C
  C782     1.0000 0.05780  0.27480  0.71110  Biso   1.000  C
  C783     1.0000 0.44220  0.77480  0.78890  Biso   1.000  C
  C784     1.0000 0.55780  0.77480  0.71110  Biso   1.000  C
  C785     1.0000 0.04940  0.69180  0.22460  Biso   1.000  C
  C786     1.0000 0.95060  0.69180  0.27540  Biso   1.000  C
  C787     1.0000 0.54940  0.19180  0.22460  Biso   1.000  C
  C788     1.0000 0.45060  0.19180  0.27540  Biso   1.000  C
  C789     1.0000 0.95060  0.30820  0.77540  Biso   1.000  C
  C790     1.0000 0.04940  0.30820  0.72460  Biso   1.000  C
  C791     1.0000 0.45060  0.80820  0.77540  Biso   1.000  C
  C792     1.0000 0.54940  0.80820  0.72460  Biso   1.000  C
  C793     1.0000 0.01120  0.65200  0.23480  Biso   1.000  C
  C794     1.0000 0.98880  0.65200  0.26520  Biso   1.000  C
  C795     1.0000 0.51120  0.15200  0.23480  Biso   1.000  C
  C796     1.0000 0.48880  0.15200  0.26520  Biso   1.000  C
  C797     1.0000 0.98880  0.34800  0.76520  Biso   1.000  C
  C798     1.0000 0.01120  0.34800  0.73480  Biso   1.000  C
  C799     1.0000 0.48880  0.84800  0.76520  Biso   1.000  C
  C800     1.0000 0.51120  0.84800  0.73480  Biso   1.000  C
  C801     1.0000 0.93170  0.89160  0.26700  Biso   1.000  C
  C802     1.0000 0.06830  0.89160  0.23300  Biso   1.000  C
  C803     1.0000 0.43170  0.39160  0.26700  Biso   1.000  C
  C804     1.0000 0.56830  0.39160  0.23300  Biso   1.000  C
  C805     1.0000 0.06830  0.10840  0.73300  Biso   1.000  C
  C806     1.0000 0.93170  0.10840  0.76700  Biso   1.000  C
  C807     1.0000 0.56830  0.60840  0.73300  Biso   1.000  C
  C808     1.0000 0.43170  0.60840  0.76700  Biso   1.000  C
  C809     1.0000 0.97760  0.92930  0.26530  Biso   1.000  C
  C810     1.0000 0.02240  0.92930  0.23470  Biso   1.000  C
  C811     1.0000 0.47760  0.42930  0.26530  Biso   1.000  C
  C812     1.0000 0.52240  0.42930  0.23470  Biso   1.000  C
  C813     1.0000 0.02240  0.07070  0.73470  Biso   1.000  C
  C814     1.0000 0.97760  0.07070  0.76530  Biso   1.000  C
  C815     1.0000 0.52240  0.57070  0.73470  Biso   1.000  C
  C816     1.0000 0.47760  0.57070  0.76530  Biso   1.000  C
  C817     1.0000 0.99020  0.94430  0.31140  Biso   1.000  C
  C818     1.0000 0.00980  0.94430  0.18860  Biso   1.000  C
  C819     1.0000 0.49020  0.44430  0.31140  Biso   1.000  C
  C820     1.0000 0.50980  0.44430  0.18860  Biso   1.000  C
  C821     1.0000 0.00980  0.05570  0.68860  Biso   1.000  C
  C822     1.0000 0.99020  0.05570  0.81140  Biso   1.000  C
  C823     1.0000 0.50980  0.55570  0.68860  Biso   1.000  C
  C824     1.0000 0.49020  0.55570  0.81140  Biso   1.000  C
  C825     1.0000 0.99190  0.98750  0.26740  Biso   1.000  C
  C826     1.0000 0.00810  0.98750  0.23260  Biso   1.000  C
  C827     1.0000 0.49190  0.48750  0.26740  Biso   1.000  C
  C828     1.0000 0.50810  0.48750  0.23260  Biso   1.000  C
  C829     1.0000 0.00810  0.01250  0.73260  Biso   1.000  C
  C830     1.0000 0.99190  0.01250  0.76740  Biso   1.000  C
  C831     1.0000 0.50810  0.51250  0.73260  Biso   1.000  C
  C832     1.0000 0.49190  0.51250  0.76740  Biso   1.000  C
  C833     1.0000 0.82360  0.98910  0.25060  Biso   1.000  C
  C834     1.0000 0.17640  0.98910  0.24940  Biso   1.000  C
  C835     1.0000 0.32360  0.48910  0.25060  Biso   1.000  C
  C836     1.0000 0.67640  0.48910  0.24940  Biso   1.000  C
  C837     1.0000 0.17640  0.01090  0.74940  Biso   1.000  C
  C838     1.0000 0.82360  0.01090  0.75060  Biso   1.000  C
  C839     1.0000 0.67640  0.51090  0.74940  Biso   1.000  C
  C840     1.0000 0.32360  0.51090  0.75060  Biso   1.000  C
  C841     1.0000 0.87230  0.03940  0.25190  Biso   1.000  C
  C842     1.0000 0.12770  0.03940  0.24810  Biso   1.000  C
  C843     1.0000 0.37230  0.53940  0.25190  Biso   1.000  C
  C844     1.0000 0.62770  0.53940  0.24810  Biso   1.000  C
  C845     1.0000 0.12770  0.96060  0.74810  Biso   1.000  C
  C846     1.0000 0.87230  0.96060  0.75190  Biso   1.000  C
  C847     1.0000 0.62770  0.46060  0.74810  Biso   1.000  C
  C848     1.0000 0.37230  0.46060  0.75190  Biso   1.000  C
  C849     1.0000 0.89210  0.07020  0.26450  Biso   1.000  C
  C850     1.0000 0.10790  0.07020  0.23550  Biso   1.000  C
  C851     1.0000 0.39210  0.57020  0.26450  Biso   1.000  C
  C852     1.0000 0.60790  0.57020  0.23550  Biso   1.000  C
  C853     1.0000 0.10790  0.92980  0.73550  Biso   1.000  C
  C854     1.0000 0.89210  0.92980  0.76450  Biso   1.000  C
  C855     1.0000 0.60790  0.42980  0.73550  Biso   1.000  C
  C856     1.0000 0.39210  0.42980  0.76450  Biso   1.000  C
  C857     1.0000 0.85720  0.13230  0.25970  Biso   1.000  C
  C858     1.0000 0.14280  0.13230  0.24030  Biso   1.000  C
  C859     1.0000 0.35720  0.63230  0.25970  Biso   1.000  C
  C860     1.0000 0.64280  0.63230  0.24030  Biso   1.000  C
  C861     1.0000 0.14280  0.86770  0.74030  Biso   1.000  C
  C862     1.0000 0.85720  0.86770  0.75970  Biso   1.000  C
  C863     1.0000 0.64280  0.36770  0.74030  Biso   1.000  C
  C864     1.0000 0.35720  0.36770  0.75970  Biso   1.000  C
  C865     1.0000 0.82080  0.14470  0.24280  Biso   1.000  C
  C866     1.0000 0.17920  0.14470  0.25720  Biso   1.000  C
  C867     1.0000 0.32080  0.64470  0.24280  Biso   1.000  C
  C868     1.0000 0.67920  0.64470  0.25720  Biso   1.000  C
  C869     1.0000 0.17920  0.85530  0.75720  Biso   1.000  C
  C870     1.0000 0.82080  0.85530  0.74280  Biso   1.000  C
  C871     1.0000 0.67920  0.35530  0.75720  Biso   1.000  C
  C872     1.0000 0.32080  0.35530  0.74280  Biso   1.000  C
  C873     1.0000 0.77780  0.20770  0.23830  Biso   1.000  C
  C874     1.0000 0.22220  0.20770  0.26170  Biso   1.000  C
  C875     1.0000 0.27780  0.70770  0.23830  Biso   1.000  C
  C876     1.0000 0.72220  0.70770  0.26170  Biso   1.000  C
  C877     1.0000 0.22220  0.79230  0.76170  Biso   1.000  C
  C878     1.0000 0.77780  0.79230  0.73830  Biso   1.000  C
  C879     1.0000 0.72220  0.29230  0.76170  Biso   1.000  C
  C880     1.0000 0.27780  0.29230  0.73830  Biso   1.000  C
  C881     1.0000 0.74080  0.20780  0.22890  Biso   1.000  C
  C882     1.0000 0.25920  0.20780  0.27110  Biso   1.000  C
  C883     1.0000 0.24080  0.70780  0.22890  Biso   1.000  C
  C884     1.0000 0.75920  0.70780  0.27110  Biso   1.000  C
  C885     1.0000 0.25920  0.79220  0.77110  Biso   1.000  C
  C886     1.0000 0.74080  0.79220  0.72890  Biso   1.000  C
  C887     1.0000 0.75920  0.29220  0.77110  Biso   1.000  C
  C888     1.0000 0.24080  0.29220  0.72890  Biso   1.000  C
  C889     1.0000 0.67660  0.17090  0.24190  Biso   1.000  C
  C890     1.0000 0.32340  0.17090  0.25810  Biso   1.000  C
  C891     1.0000 0.17660  0.67090  0.24190  Biso   1.000  C
  C892     1.0000 0.82340  0.67090  0.25810  Biso   1.000  C
  C893     1.0000 0.32340  0.82910  0.75810  Biso   1.000  C
  C894     1.0000 0.67660  0.82910  0.74190  Biso   1.000  C
  C895     1.0000 0.82340  0.32910  0.75810  Biso   1.000  C
  C896     1.0000 0.17660  0.32910  0.74190  Biso   1.000  C
  C897     1.0000 0.67010  0.13290  0.25650  Biso   1.000  C
  C898     1.0000 0.32990  0.13290  0.24350  Biso   1.000  C
  C899     1.0000 0.17010  0.63290  0.25650  Biso   1.000  C
  C900     1.0000 0.82990  0.63290  0.24350  Biso   1.000  C
  C901     1.0000 0.32990  0.86710  0.74350  Biso   1.000  C
  C902     1.0000 0.67010  0.86710  0.75650  Biso   1.000  C
  C903     1.0000 0.82990  0.36710  0.74350  Biso   1.000  C
  C904     1.0000 0.17010  0.36710  0.75650  Biso   1.000  C
  C905     1.0000 0.62670  0.08730  0.27350  Biso   1.000  C
  C906     1.0000 0.37330  0.08730  0.22650  Biso   1.000  C
  C907     1.0000 0.12670  0.58730  0.27350  Biso   1.000  C
  C908     1.0000 0.87330  0.58730  0.22650  Biso   1.000  C
  C909     1.0000 0.37330  0.91270  0.72650  Biso   1.000  C
  C910     1.0000 0.62670  0.91270  0.77350  Biso   1.000  C
  C911     1.0000 0.87330  0.41270  0.72650  Biso   1.000  C
  C912     1.0000 0.12670  0.41270  0.77350  Biso   1.000  C
  C913     1.0000 0.64290  0.05360  0.28390  Biso   1.000  C
  C914     1.0000 0.35710  0.05360  0.21610  Biso   1.000  C
  C915     1.0000 0.14290  0.55360  0.28390  Biso   1.000  C
  C916     1.0000 0.85710  0.55360  0.21610  Biso   1.000  C
  C917     1.0000 0.35710  0.94640  0.71610  Biso   1.000  C
  C918     1.0000 0.64290  0.94640  0.78390  Biso   1.000  C
  C919     1.0000 0.85710  0.44640  0.71610  Biso   1.000  C
  C920     1.0000 0.14290  0.44640  0.78390  Biso   1.000  C
  C921     1.0000 0.65320  0.99100  0.26200  Biso   1.000  C
  C922     1.0000 0.34680  0.99100  0.23800  Biso   1.000  C
  C923     1.0000 0.15320  0.49100  0.26200  Biso   1.000  C
  C924     1.0000 0.84680  0.49100  0.23800  Biso   1.000  C
  C925     1.0000 0.34680  0.00900  0.73800  Biso   1.000  C
  C926     1.0000 0.65320  0.00900  0.76200  Biso   1.000  C
  C927     1.0000 0.84680  0.50900  0.73800  Biso   1.000  C
  C928     1.0000 0.15320  0.50900  0.76200  Biso   1.000  C
  C929     1.0000 0.67800  0.97910  0.24080  Biso   1.000  C
  C930     1.0000 0.32200  0.97910  0.25920  Biso   1.000  C
  C931     1.0000 0.17800  0.47910  0.24080  Biso   1.000  C
  C932     1.0000 0.82200  0.47910  0.25920  Biso   1.000  C
  C933     1.0000 0.32200  0.02090  0.75920  Biso   1.000  C
  C934     1.0000 0.67800  0.02090  0.74080  Biso   1.000  C
  C935     1.0000 0.82200  0.52090  0.75920  Biso   1.000  C
  C936     1.0000 0.17800  0.52090  0.74080  Biso   1.000  C
  C937     1.0000 0.72660  0.92860  0.25070  Biso   1.000  C
  C938     1.0000 0.27340  0.92860  0.24930  Biso   1.000  C
  C939     1.0000 0.22660  0.42860  0.25070  Biso   1.000  C
  C940     1.0000 0.77340  0.42860  0.24930  Biso   1.000  C
  C941     1.0000 0.27340  0.07140  0.74930  Biso   1.000  C
  C942     1.0000 0.72660  0.07140  0.75070  Biso   1.000  C
  C943     1.0000 0.77340  0.57140  0.74930  Biso   1.000  C
  C944     1.0000 0.22660  0.57140  0.75070  Biso   1.000  C
  C945     1.0000 0.75570  0.92850  0.25790  Biso   1.000  C
  C946     1.0000 0.24430  0.92850  0.24210  Biso   1.000  C
  C947     1.0000 0.25570  0.42850  0.25790  Biso   1.000  C
  C948     1.0000 0.74430  0.42850  0.24210  Biso   1.000  C
  C949     1.0000 0.24430  0.07150  0.74210  Biso   1.000  C
  C950     1.0000 0.75570  0.07150  0.75790  Biso   1.000  C
  C951     1.0000 0.74430  0.57150  0.74210  Biso   1.000  C
  C952     1.0000 0.25570  0.57150  0.75790  Biso   1.000  C
  C953     1.0000 0.80400  0.95960  0.22940  Biso   1.000  C
  C954     1.0000 0.19600  0.95960  0.27060  Biso   1.000  C
  C955     1.0000 0.30400  0.45960  0.22940  Biso   1.000  C
  C956     1.0000 0.69600  0.45960  0.27060  Biso   1.000  C
  C957     1.0000 0.19600  0.04040  0.77060  Biso   1.000  C
  C958     1.0000 0.80400  0.04040  0.72940  Biso   1.000  C
  C959     1.0000 0.69600  0.54040  0.77060  Biso   1.000  C
  C960     1.0000 0.30400  0.54040  0.72940  Biso   1.000  C
  C961     1.0000 0.75870  0.14350  0.24940  Biso   1.000  C
  C962     1.0000 0.24130  0.14350  0.25060  Biso   1.000  C
  C963     1.0000 0.25870  0.64350  0.24940  Biso   1.000  C
  C964     1.0000 0.74130  0.64350  0.25060  Biso   1.000  C
  C965     1.0000 0.24130  0.85650  0.75060  Biso   1.000  C
  C966     1.0000 0.75870  0.85650  0.74940  Biso   1.000  C
  C967     1.0000 0.74130  0.35650  0.75060  Biso   1.000  C
  C968     1.0000 0.25870  0.35650  0.74940  Biso   1.000  C
  C969     1.0000 0.72530  0.15610  0.23450  Biso   1.000  C
  C970     1.0000 0.27470  0.15610  0.26550  Biso   1.000  C
  C971     1.0000 0.22530  0.65610  0.23450  Biso   1.000  C
  C972     1.0000 0.77470  0.65610  0.26550  Biso   1.000  C
  C973     1.0000 0.27470  0.84390  0.76550  Biso   1.000  C
  C974     1.0000 0.72530  0.84390  0.73450  Biso   1.000  C
  C975     1.0000 0.77470  0.34390  0.76550  Biso   1.000  C
  C976     1.0000 0.22530  0.34390  0.73450  Biso   1.000  C
  C977     1.0000 0.67630  0.06080  0.25900  Biso   1.000  C
  C978     1.0000 0.32370  0.06080  0.24100  Biso   1.000  C
  C979     1.0000 0.17630  0.56080  0.25900  Biso   1.000  C
  C980     1.0000 0.82370  0.56080  0.24100  Biso   1.000  C
  C981     1.0000 0.32370  0.93920  0.74100  Biso   1.000  C
  C982     1.0000 0.67630  0.93920  0.75900  Biso   1.000  C
  C983     1.0000 0.82370  0.43920  0.74100  Biso   1.000  C
  C984     1.0000 0.17630  0.43920  0.75900  Biso   1.000  C
  C985     1.0000 0.66990  0.03010  0.27530  Biso   1.000  C
  C986     1.0000 0.33010  0.03010  0.22470  Biso   1.000  C
  C987     1.0000 0.16990  0.53010  0.27530  Biso   1.000  C
  C988     1.0000 0.83010  0.53010  0.22470  Biso   1.000  C
  C989     1.0000 0.33010  0.96990  0.72470  Biso   1.000  C
  C990     1.0000 0.66990  0.96990  0.77530  Biso   1.000  C
  C991     1.0000 0.83010  0.46990  0.72470  Biso   1.000  C
  C992     1.0000 0.16990  0.46990  0.77530  Biso   1.000  C
  C993     1.0000 0.76590  0.96590  0.24000  Biso   1.000  C
  C994     1.0000 0.23410  0.96590  0.26000  Biso   1.000  C
  C995     1.0000 0.26590  0.46590  0.24000  Biso   1.000  C
  C996     1.0000 0.73410  0.46590  0.26000  Biso   1.000  C
  C997     1.0000 0.23410  0.03410  0.76000  Biso   1.000  C
  C998     1.0000 0.76590  0.03410  0.74000  Biso   1.000  C
  C999     1.0000 0.73410  0.53410  0.76000  Biso   1.000  C
  C1000    1.0000 0.26590  0.53410  0.74000  Biso   1.000  C
  C1001    1.0000 0.73760  0.98080  0.24990  Biso   1.000  C
  C1002    1.0000 0.26240  0.98080  0.25010  Biso   1.000  C
  C1003    1.0000 0.23760  0.48080  0.24990  Biso   1.000  C
  C1004    1.0000 0.76240  0.48080  0.25010  Biso   1.000  C
  C1005    1.0000 0.26240  0.01920  0.75010  Biso   1.000  C
  C1006    1.0000 0.73760  0.01920  0.74990  Biso   1.000  C
  C1007    1.0000 0.76240  0.51920  0.75010  Biso   1.000  C
  C1008    1.0000 0.23760  0.51920  0.74990  Biso   1.000  C
  C1009    1.0000 0.83290  0.05810  0.26070  Biso   1.000  C
  C1010    1.0000 0.16710  0.05810  0.23930  Biso   1.000  C
  C1011    1.0000 0.33290  0.55810  0.26070  Biso   1.000  C
  C1012    1.0000 0.66710  0.55810  0.23930  Biso   1.000  C
  C1013    1.0000 0.16710  0.94190  0.73930  Biso   1.000  C
  C1014    1.0000 0.83290  0.94190  0.76070  Biso   1.000  C
  C1015    1.0000 0.66710  0.44190  0.73930  Biso   1.000  C
  C1016    1.0000 0.33290  0.44190  0.76070  Biso   1.000  C
  C1017    1.0000 0.85320  0.08720  0.27280  Biso   1.000  C
  C1018    1.0000 0.14680  0.08720  0.22720  Biso   1.000  C
  C1019    1.0000 0.35320  0.58720  0.27280  Biso   1.000  C
  C1020    1.0000 0.64680  0.58720  0.22720  Biso   1.000  C
  C1021    1.0000 0.14680  0.91280  0.72720  Biso   1.000  C
  C1022    1.0000 0.85320  0.91280  0.77280  Biso   1.000  C
  C1023    1.0000 0.64680  0.41280  0.72720  Biso   1.000  C
  C1024    1.0000 0.35320  0.41280  0.77280  Biso   1.000  C
  O321     1.0000 0.96913  0.95204  0.56890  Biso   1.000  O
  O322     1.0000 0.03087  0.95204  0.93110  Biso   1.000  O
  O323     1.0000 0.46913  0.45204  0.56890  Biso   1.000  O
  O324     1.0000 0.53087  0.45204  0.93110  Biso   1.000  O
  O325     1.0000 0.03087  0.04796  0.43110  Biso   1.000  O
  O326     1.0000 0.96913  0.04796  0.06890  Biso   1.000  O
  O327     1.0000 0.53087  0.54796  0.43110  Biso   1.000  O
  O328     1.0000 0.46913  0.54796  0.06890  Biso   1.000  O
  O329     1.0000 0.71919  0.29786  0.06890  Biso   1.000  O
  O330     1.0000 0.28081  0.29786  0.43110  Biso   1.000  O
  O331     1.0000 0.21919  0.79786  0.06890  Biso   1.000  O
  O332     1.0000 0.78081  0.79786  0.43110  Biso   1.000  O
  O333     1.0000 0.28081  0.70214  0.93110  Biso   1.000  O
  O334     1.0000 0.71919  0.70214  0.56890  Biso   1.000  O
  O335     1.0000 0.78081  0.20214  0.93110  Biso   1.000  O
  O336     1.0000 0.21919  0.20214  0.56890  Biso   1.000  O
  O337     1.0000 0.69036  0.82677  0.06870  Biso   1.000  O
  O338     1.0000 0.30964  0.82677  0.43130  Biso   1.000  O
  O339     1.0000 0.19036  0.32677  0.06870  Biso   1.000  O
  O340     1.0000 0.80964  0.32677  0.43130  Biso   1.000  O
  O341     1.0000 0.30964  0.17323  0.93130  Biso   1.000  O
  O342     1.0000 0.69036  0.17323  0.56870  Biso   1.000  O
  O343     1.0000 0.80964  0.67323  0.93130  Biso   1.000  O
  O344     1.0000 0.19036  0.67323  0.56870  Biso   1.000  O
  O345     1.0000 0.55933  0.92279  0.93130  Biso   1.000  O
  O346     1.0000 0.44067  0.92279  0.56870  Biso   1.000  O
  O347     1.0000 0.05933  0.42279  0.93130  Biso   1.000  O
  O348     1.0000 0.94067  0.42279  0.56870  Biso   1.000  O
  O349     1.0000 0.44067  0.07721  0.06870  Biso   1.000  O
  O350     1.0000 0.55933  0.07721  0.43130  Biso   1.000  O
  O351     1.0000 0.94067  0.57721  0.06870  Biso   1.000  O
  O352     1.0000 0.05933  0.57721  0.43130  Biso   1.000  O
