data_image0
_cell_length_a       11.4507
_cell_length_b       11.6026
_cell_length_c       13.2025
_cell_angle_alpha    65.36
_cell_angle_beta     71.368
_cell_angle_gamma    71.461

_symmetry_space_group_name_H-M    "P 1"
_symmetry_int_tables_number       1

loop_
  _symmetry_equiv_pos_as_xyz
  'x, y, z'

loop_
  _atom_site_label
  _atom_site_occupancy
  _atom_site_fract_x
  _atom_site_fract_y
  _atom_site_fract_z
  _atom_site_thermal_displace_type
  _atom_site_B_iso_or_equiv
  _atom_site_type_symbol
  N1       1.0000 0.29380  0.11670  0.60890  Biso   1.000  N
  N2       1.0000 0.70620  0.88330  0.39110  Biso   1.000  N
  C1       1.0000 0.10890  0.12300  0.88970  Biso   1.000  C
  C2       1.0000 0.89110  0.87700  0.11030  Biso   1.000  C
  H1       1.0000 0.15070  0.04780  0.94290  Biso   1.000  H
  H2       1.0000 0.84930  0.95220  0.05710  Biso   1.000  H
  H3       1.0000 0.01960  0.12780  0.91300  Biso   1.000  H
  H4       1.0000 0.98040  0.87220  0.08700  Biso   1.000  H
  H5       1.0000 0.12630  0.19960  0.88800  Biso   1.000  H
  H6       1.0000 0.87370  0.80040  0.11200  Biso   1.000  H
  Cu1      1.0000 0.61797  0.24402  0.08878  Biso   1.000  Cu
  Cu2      1.0000 0.38203  0.75598  0.91122  Biso   1.000  Cu
  N3       1.0000 0.27070  0.12790  0.71220  Biso   1.000  N
  N4       1.0000 0.72930  0.87210  0.28780  Biso   1.000  N
  H7       1.0000 0.32480  0.14270  0.73530  Biso   1.000  H
  H8       1.0000 0.67520  0.85730  0.26470  Biso   1.000  H
  C3       1.0000 0.15590  0.11360  0.77370  Biso   1.000  C
  C4       1.0000 0.84410  0.88640  0.22630  Biso   1.000  C
  Cu3      1.0000 0.46381  0.13632  0.50565  Biso   1.000  Cu
  Cu4      1.0000 0.53619  0.86368  0.49435  Biso   1.000  Cu
  N5       1.0000 0.84830  0.89730  0.82260  Biso   1.000  N
  N6       1.0000 0.15170  0.10270  0.17740  Biso   1.000  N
  C5       1.0000 0.09890  0.09100  0.70870  Biso   1.000  C
  C6       1.0000 0.90110  0.90900  0.29130  Biso   1.000  C
  Cu5      1.0000 0.69019  0.04833  0.80240  Biso   1.000  Cu
  Cu6      1.0000 0.30981  0.95167  0.19760  Biso   1.000  Cu
  N7       1.0000 0.61450  0.47390  0.13070  Biso   1.000  N
  N8       1.0000 0.38550  0.52610  0.86930  Biso   1.000  N
  H9       1.0000 0.58800  0.43150  0.20160  Biso   1.000  H
  H10      1.0000 0.41200  0.56850  0.79840  Biso   1.000  H
  C7       1.0000 0.18780  0.09510  0.60610  Biso   1.000  C
  C8       1.0000 0.81220  0.90490  0.39390  Biso   1.000  C
  N9       1.0000 0.64580  0.42430  0.04610  Biso   1.000  N
  N10      1.0000 0.35420  0.57570  0.95390  Biso   1.000  N
  C9       1.0000 0.17830  0.07440  0.50670  Biso   1.000  C
  C10      1.0000 0.82170  0.92560  0.49330  Biso   1.000  C
  H11      1.0000 0.20040  0.14540  0.43860  Biso   1.000  H
  H12      1.0000 0.79960  0.85460  0.56140  Biso   1.000  H
  H13      1.0000 0.09340  0.06930  0.51540  Biso   1.000  H
  H14      1.0000 0.90660  0.93070  0.48460  Biso   1.000  H
  H15      1.0000 0.23490  0.99490  0.50130  Biso   1.000  H
  H16      1.0000 0.76510  0.00510  0.49870  Biso   1.000  H
  C11      1.0000 0.96930  0.06260  0.74300  Biso   1.000  C
  C12      1.0000 0.03070  0.93740  0.25700  Biso   1.000  C
  H17      1.0000 0.91550  0.10730  0.79490  Biso   1.000  H
  H18      1.0000 0.08450  0.89270  0.20510  Biso   1.000  H
  H19      1.0000 0.93440  0.09860  0.67550  Biso   1.000  H
  H20      1.0000 0.06560  0.90140  0.32450  Biso   1.000  H
  N11      1.0000 0.55490  0.20730  0.25100  Biso   1.000  N
  N12      1.0000 0.44510  0.79270  0.74900  Biso   1.000  N
  C13      1.0000 0.96400  0.92250  0.79880  Biso   1.000  C
  C14      1.0000 0.03600  0.07750  0.20120  Biso   1.000  C
  N13      1.0000 0.54620  0.12270  0.62140  Biso   1.000  N
  N14      1.0000 0.45380  0.87730  0.37860  Biso   1.000  N
  C15      1.0000 0.06620  0.82250  0.82590  Biso   1.000  C
  C16      1.0000 0.93380  0.17750  0.17410  Biso   1.000  C
  H21      1.0000 0.14550  0.84010  0.80900  Biso   1.000  H
  H22      1.0000 0.85450  0.15990  0.19100  Biso   1.000  H
  N15      1.0000 0.66810  0.11000  0.92310  Biso   1.000  N
  N16      1.0000 0.33190  0.89000  0.07690  Biso   1.000  N
  C17      1.0000 0.05040  0.69770  0.87760  Biso   1.000  C
  C18      1.0000 0.94960  0.30230  0.12240  Biso   1.000  C
  H23      1.0000 0.11880  0.62970  0.89610  Biso   1.000  H
  H24      1.0000 0.88120  0.37030  0.10390  Biso   1.000  H
  C19      1.0000 0.93320  0.67280  0.90210  Biso   1.000  C
  C20      1.0000 0.06680  0.32720  0.09790  Biso   1.000  C
  H25      1.0000 0.92140  0.58800  0.93740  Biso   1.000  H
  H26      1.0000 0.07860  0.41200  0.06260  Biso   1.000  H
  C21      1.0000 0.83320  0.77510  0.87360  Biso   1.000  C
  C22      1.0000 0.16680  0.22490  0.12640  Biso   1.000  C
  C23      1.0000 0.70170  0.75860  0.89170  Biso   1.000  C
  C24      1.0000 0.29830  0.24140  0.10830  Biso   1.000  C
  H27      1.0000 0.68760  0.77220  0.81860  Biso   1.000  H
  H28      1.0000 0.31240  0.22780  0.18140  Biso   1.000  H
  H29      1.0000 0.64190  0.82580  0.91870  Biso   1.000  H
  H30      1.0000 0.35810  0.17420  0.08130  Biso   1.000  H
  C25      1.0000 0.60130  0.67190  0.16760  Biso   1.000  C
  C26      1.0000 0.39870  0.32810  0.83240  Biso   1.000  C
  H31      1.0000 0.52360  0.65790  0.22230  Biso   1.000  H
  H32      1.0000 0.47640  0.34210  0.77770  Biso   1.000  H
  H33      1.0000 0.59350  0.76270  0.12290  Biso   1.000  H
  H34      1.0000 0.40650  0.23730  0.87710  Biso   1.000  H
  H35      1.0000 0.66850  0.64340  0.20700  Biso   1.000  H
  H36      1.0000 0.33150  0.35660  0.79300  Biso   1.000  H
  C27      1.0000 0.62990  0.59630  0.09080  Biso   1.000  C
  C28      1.0000 0.37010  0.40370  0.90920  Biso   1.000  C
  C29      1.0000 0.67420  0.62870  0.97460  Biso   1.000  C
  C30      1.0000 0.32580  0.37130  0.02540  Biso   1.000  C
  C31      1.0000 0.68130  0.51920  0.95130  Biso   1.000  C
  C32      1.0000 0.31870  0.48080  0.04870  Biso   1.000  C
  C33      1.0000 0.72460  0.50150  0.83890  Biso   1.000  C
  C34      1.0000 0.27540  0.49850  0.16110  Biso   1.000  C
  H37      1.0000 0.81350  0.49910  0.81200  Biso   1.000  H
  H38      1.0000 0.18650  0.50090  0.18800  Biso   1.000  H
  H39      1.0000 0.67990  0.57240  0.78510  Biso   1.000  H
  H40      1.0000 0.32010  0.42760  0.21490  Biso   1.000  H
  H41      1.0000 0.70850  0.42140  0.84710  Biso   1.000  H
  H42      1.0000 0.29150  0.57860  0.15290  Biso   1.000  H
  C35      1.0000 0.51920  0.17970  0.34780  Biso   1.000  C
  C36      1.0000 0.48080  0.82030  0.65220  Biso   1.000  C
  C37      1.0000 0.60060  0.09670  0.69020  Biso   1.000  C
  C38      1.0000 0.39940  0.90330  0.30980  Biso   1.000  C
  C39      1.0000 0.65130  0.15740  0.98910  Biso   1.000  C
  C40      1.0000 0.34870  0.84260  0.01090  Biso   1.000  C
  C41      1.0000 0.10510  0.58300  0.63930  Biso   1.000  C
  C42      1.0000 0.89490  0.41700  0.36070  Biso   1.000  C
  H43      1.0000 0.12960  0.51550  0.70780  Biso   1.000  H
  H44      1.0000 0.87040  0.48450  0.29220  Biso   1.000  H
  H45      1.0000 0.02520  0.63700  0.66250  Biso   1.000  H
  H46      1.0000 0.97480  0.36300  0.33750  Biso   1.000  H
  C43      1.0000 0.08700  0.52100  0.56900  Biso   1.000  C
  C44      1.0000 0.91300  0.47900  0.43100  Biso   1.000  C
  H47      1.0000 0.00710  0.56580  0.54580  Biso   1.000  H
  H48      1.0000 0.99290  0.43420  0.45420  Biso   1.000  H
  H49      1.0000 0.08090  0.43210  0.61590  Biso   1.000  H
  H50      1.0000 0.91910  0.56790  0.38410  Biso   1.000  H
  C45      1.0000 0.19000  0.52000  0.46170  Biso   1.000  C
  C46      1.0000 0.81000  0.48000  0.53830  Biso   1.000  C
  H51      1.0000 0.18910  0.45160  0.43840  Biso   1.000  H
  H52      1.0000 0.81090  0.54840  0.56160  Biso   1.000  H
  H53      1.0000 0.17300  0.60220  0.40030  Biso   1.000  H
  H54      1.0000 0.82700  0.39780  0.59970  Biso   1.000  H
  C47      1.0000 0.31890  0.49970  0.48110  Biso   1.000  C
  C48      1.0000 0.68110  0.50030  0.51890  Biso   1.000  C
  H55      1.0000 0.37970  0.50790  0.40920  Biso   1.000  H
  H56      1.0000 0.62030  0.49210  0.59080  Biso   1.000  H
  H57      1.0000 0.34120  0.41180  0.53330  Biso   1.000  H
  H58      1.0000 0.65880  0.58820  0.46670  Biso   1.000  H
  C49      1.0000 0.32910  0.59280  0.52900  Biso   1.000  C
  C50      1.0000 0.67090  0.40720  0.47100  Biso   1.000  C
  H59      1.0000 0.37700  0.54450  0.58810  Biso   1.000  H
  H60      1.0000 0.62300  0.45550  0.41190  Biso   1.000  H
  H61      1.0000 0.37620  0.65510  0.46850  Biso   1.000  H
  H62      1.0000 0.62380  0.34490  0.53150  Biso   1.000  H
  C51      1.0000 0.20500  0.66580  0.57780  Biso   1.000  C
  C52      1.0000 0.79500  0.33420  0.42220  Biso   1.000  C
  H63      1.0000 0.17390  0.74140  0.51660  Biso   1.000  H
  H64      1.0000 0.82610  0.25860  0.48340  Biso   1.000  H
  H65      1.0000 0.21740  0.69590  0.63100  Biso   1.000  H
  H66      1.0000 0.78260  0.30410  0.36900  Biso   1.000  H
