data_image0
_cell_length_a       21.5327
_cell_length_b       16.4443
_cell_length_c       14.8195
_cell_angle_alpha    90
_cell_angle_beta     92.519
_cell_angle_gamma    90

_symmetry_space_group_name_H-M    "P 1"
_symmetry_int_tables_number       1

loop_
  _symmetry_equiv_pos_as_xyz
  'x, y, z'

loop_
  _atom_site_label
  _atom_site_occupancy
  _atom_site_fract_x
  _atom_site_fract_y
  _atom_site_fract_z
  _atom_site_thermal_displace_type
  _atom_site_B_iso_or_equiv
  _atom_site_type_symbol
  Cu1      1.0000 0.23728  0.18740  0.89460  Biso   1.000  Cu
  Cu2      1.0000 0.73728  0.68740  0.89460  Biso   1.000  Cu
  Cu3      1.0000 0.76272  0.18740  0.10540  Biso   1.000  Cu
  Cu4      1.0000 0.26272  0.68740  0.10540  Biso   1.000  Cu
  Cu5      1.0000 0.76272  0.81260  0.10540  Biso   1.000  Cu
  Cu6      1.0000 0.26272  0.31260  0.10540  Biso   1.000  Cu
  Cu7      1.0000 0.23728  0.81260  0.89460  Biso   1.000  Cu
  Cu8      1.0000 0.73728  0.31260  0.89460  Biso   1.000  Cu
  Cu9      1.0000 0.18402  0.18052  0.49445  Biso   1.000  Cu
  Cu10     1.0000 0.68402  0.68052  0.49445  Biso   1.000  Cu
  Cu11     1.0000 0.81598  0.18052  0.50555  Biso   1.000  Cu
  Cu12     1.0000 0.31598  0.68052  0.50555  Biso   1.000  Cu
  Cu13     1.0000 0.81598  0.81948  0.50555  Biso   1.000  Cu
  Cu14     1.0000 0.31598  0.31948  0.50555  Biso   1.000  Cu
  Cu15     1.0000 0.18402  0.81948  0.49445  Biso   1.000  Cu
  Cu16     1.0000 0.68402  0.31948  0.49445  Biso   1.000  Cu
  Cu17     1.0000 0.16364  0.38983  0.56412  Biso   1.000  Cu
  Cu18     1.0000 0.66364  0.88983  0.56412  Biso   1.000  Cu
  Cu19     1.0000 0.83636  0.38983  0.43588  Biso   1.000  Cu
  Cu20     1.0000 0.33636  0.88983  0.43588  Biso   1.000  Cu
  Cu21     1.0000 0.83636  0.61017  0.43588  Biso   1.000  Cu
  Cu22     1.0000 0.33636  0.11017  0.43588  Biso   1.000  Cu
  Cu23     1.0000 0.16364  0.61017  0.56412  Biso   1.000  Cu
  Cu24     1.0000 0.66364  0.11017  0.56412  Biso   1.000  Cu
  Cu25     1.0000 0.09650  0.50000  0.36915  Biso   1.000  Cu
  Cu26     1.0000 0.59650  0.00000  0.36915  Biso   1.000  Cu
  Cu27     1.0000 0.90350  0.50000  0.63085  Biso   1.000  Cu
  Cu28     1.0000 0.40350  0.00000  0.63085  Biso   1.000  Cu
  Cu29     1.0000 0.11841  0.38922  0.17168  Biso   1.000  Cu
  Cu30     1.0000 0.61841  0.88922  0.17168  Biso   1.000  Cu
  Cu31     1.0000 0.88159  0.38922  0.82832  Biso   1.000  Cu
  Cu32     1.0000 0.38159  0.88922  0.82832  Biso   1.000  Cu
  Cu33     1.0000 0.88159  0.61078  0.82832  Biso   1.000  Cu
  Cu34     1.0000 0.38159  0.11078  0.82832  Biso   1.000  Cu
  Cu35     1.0000 0.11841  0.61078  0.17168  Biso   1.000  Cu
  Cu36     1.0000 0.61841  0.11078  0.17168  Biso   1.000  Cu
  Cu37     1.0000 0.00000  0.33885  0.00000  Biso   1.000  Cu
  Cu38     1.0000 0.50000  0.83885  0.00000  Biso   1.000  Cu
  Cu39     1.0000 0.00000  0.66115  0.00000  Biso   1.000  Cu
  Cu40     1.0000 0.50000  0.16115  0.00000  Biso   1.000  Cu
  O1       1.0000 0.17540  0.00000  0.69780  Biso   1.000  O
  O2       1.0000 0.67540  0.50000  0.69780  Biso   1.000  O
  O3       1.0000 0.82460  0.00000  0.30220  Biso   1.000  O
  O4       1.0000 0.32460  0.50000  0.30220  Biso   1.000  O
  O5       1.0000 0.00000  0.18970  0.50000  Biso   1.000  O
  O6       1.0000 0.50000  0.68970  0.50000  Biso   1.000  O
  O7       1.0000 0.00000  0.81030  0.50000  Biso   1.000  O
  O8       1.0000 0.50000  0.31030  0.50000  Biso   1.000  O
  N1       1.0000 0.21831  0.22470  0.76470  Biso   1.000  N
  N2       1.0000 0.71831  0.72470  0.76470  Biso   1.000  N
  N3       1.0000 0.78169  0.22470  0.23530  Biso   1.000  N
  N4       1.0000 0.28169  0.72470  0.23530  Biso   1.000  N
  N5       1.0000 0.78169  0.77530  0.23530  Biso   1.000  N
  N6       1.0000 0.28169  0.27530  0.23530  Biso   1.000  N
  N7       1.0000 0.21831  0.77530  0.76470  Biso   1.000  N
  N8       1.0000 0.71831  0.27530  0.76470  Biso   1.000  N
  N9       1.0000 0.21381  0.17580  0.69260  Biso   1.000  N
  N10      1.0000 0.71381  0.67580  0.69260  Biso   1.000  N
  N11      1.0000 0.78619  0.17580  0.30740  Biso   1.000  N
  N12      1.0000 0.28619  0.67580  0.30740  Biso   1.000  N
  N13      1.0000 0.78619  0.82420  0.30740  Biso   1.000  N
  N14      1.0000 0.28619  0.32420  0.30740  Biso   1.000  N
  N15      1.0000 0.21381  0.82420  0.69260  Biso   1.000  N
  N16      1.0000 0.71381  0.32420  0.69260  Biso   1.000  N
  N17      1.0000 0.19644  0.21920  0.62160  Biso   1.000  N
  N18      1.0000 0.69644  0.71920  0.62160  Biso   1.000  N
  N19      1.0000 0.80356  0.21920  0.37840  Biso   1.000  N
  N20      1.0000 0.30356  0.71920  0.37840  Biso   1.000  N
  N21      1.0000 0.80356  0.78080  0.37840  Biso   1.000  N
  N22      1.0000 0.30356  0.28080  0.37840  Biso   1.000  N
  N23      1.0000 0.19644  0.78080  0.62160  Biso   1.000  N
  N24      1.0000 0.69644  0.28080  0.62160  Biso   1.000  N
  N25      1.0000 0.18833  0.29730  0.64680  Biso   1.000  N
  N26      1.0000 0.68833  0.79730  0.64680  Biso   1.000  N
  N27      1.0000 0.81167  0.29730  0.35320  Biso   1.000  N
  N28      1.0000 0.31167  0.79730  0.35320  Biso   1.000  N
  N29      1.0000 0.81167  0.70270  0.35320  Biso   1.000  N
  N30      1.0000 0.31167  0.20270  0.35320  Biso   1.000  N
  N31      1.0000 0.18833  0.70270  0.64680  Biso   1.000  N
  N32      1.0000 0.68833  0.20270  0.64680  Biso   1.000  N
  N33      1.0000 0.20152  0.06650  0.46690  Biso   1.000  N
  N34      1.0000 0.70152  0.56650  0.46690  Biso   1.000  N
  N35      1.0000 0.79848  0.06650  0.53310  Biso   1.000  N
  N36      1.0000 0.29848  0.56650  0.53310  Biso   1.000  N
  N37      1.0000 0.79848  0.93350  0.53310  Biso   1.000  N
  N38      1.0000 0.29848  0.43350  0.53310  Biso   1.000  N
  N39      1.0000 0.20152  0.93350  0.46690  Biso   1.000  N
  N40      1.0000 0.70152  0.43350  0.46690  Biso   1.000  N
  N41      1.0000 0.24125  0.46040  0.54950  Biso   1.000  N
  N42      1.0000 0.74125  0.96040  0.54950  Biso   1.000  N
  N43      1.0000 0.75875  0.46040  0.45050  Biso   1.000  N
  N44      1.0000 0.25875  0.96040  0.45050  Biso   1.000  N
  N45      1.0000 0.75875  0.53960  0.45050  Biso   1.000  N
  N46      1.0000 0.25875  0.03960  0.45050  Biso   1.000  N
  N47      1.0000 0.24125  0.53960  0.54950  Biso   1.000  N
  N48      1.0000 0.74125  0.03960  0.54950  Biso   1.000  N
  N49      1.0000 0.15127  0.26580  0.41210  Biso   1.000  N
  N50      1.0000 0.65127  0.76580  0.41210  Biso   1.000  N
  N51      1.0000 0.84873  0.26580  0.58790  Biso   1.000  N
  N52      1.0000 0.34873  0.76580  0.58790  Biso   1.000  N
  N53      1.0000 0.84873  0.73420  0.58790  Biso   1.000  N
  N54      1.0000 0.34873  0.23420  0.58790  Biso   1.000  N
  N55      1.0000 0.15127  0.73420  0.41210  Biso   1.000  N
  N56      1.0000 0.65127  0.23420  0.41210  Biso   1.000  N
  N57      1.0000 0.14595  0.34410  0.43810  Biso   1.000  N
  N58      1.0000 0.64595  0.84410  0.43810  Biso   1.000  N
  N59      1.0000 0.85405  0.34410  0.56190  Biso   1.000  N
  N60      1.0000 0.35405  0.84410  0.56190  Biso   1.000  N
  N61      1.0000 0.85405  0.65590  0.56190  Biso   1.000  N
  N62      1.0000 0.35405  0.15590  0.56190  Biso   1.000  N
  N63      1.0000 0.14595  0.65590  0.43810  Biso   1.000  N
  N64      1.0000 0.64595  0.15590  0.43810  Biso   1.000  N
  N65      1.0000 0.12942  0.38820  0.36750  Biso   1.000  N
  N66      1.0000 0.62942  0.88820  0.36750  Biso   1.000  N
  N67      1.0000 0.87058  0.38820  0.63250  Biso   1.000  N
  N68      1.0000 0.37058  0.88820  0.63250  Biso   1.000  N
  N69      1.0000 0.87058  0.61180  0.63250  Biso   1.000  N
  N70      1.0000 0.37058  0.11180  0.63250  Biso   1.000  N
  N71      1.0000 0.12942  0.61180  0.36750  Biso   1.000  N
  N72      1.0000 0.62942  0.11180  0.36750  Biso   1.000  N
  N73      1.0000 0.12389  0.34010  0.29400  Biso   1.000  N
  N74      1.0000 0.62389  0.84010  0.29400  Biso   1.000  N
  N75      1.0000 0.87611  0.34010  0.70600  Biso   1.000  N
  N76      1.0000 0.37611  0.84010  0.70600  Biso   1.000  N
  N77      1.0000 0.87611  0.65990  0.70600  Biso   1.000  N
  N78      1.0000 0.37611  0.15990  0.70600  Biso   1.000  N
  N79      1.0000 0.12389  0.65990  0.29400  Biso   1.000  N
  N80      1.0000 0.62389  0.15990  0.29400  Biso   1.000  N
  N81      1.0000 0.00260  0.50000  0.37680  Biso   1.000  N
  N82      1.0000 0.50260  0.00000  0.37680  Biso   1.000  N
  N83      1.0000 0.99740  0.50000  0.62320  Biso   1.000  N
  N84      1.0000 0.49740  0.00000  0.62320  Biso   1.000  N
  N85      1.0000 0.96600  0.43510  0.38700  Biso   1.000  N
  N86      1.0000 0.46600  0.93510  0.38700  Biso   1.000  N
  N87      1.0000 0.03400  0.43510  0.61300  Biso   1.000  N
  N88      1.0000 0.53400  0.93510  0.61300  Biso   1.000  N
  N89      1.0000 0.03400  0.56490  0.61300  Biso   1.000  N
  N90      1.0000 0.53400  0.06490  0.61300  Biso   1.000  N
  N91      1.0000 0.96600  0.56490  0.38700  Biso   1.000  N
  N92      1.0000 0.46600  0.06490  0.38700  Biso   1.000  N
  N93      1.0000 0.09153  0.45900  0.59840  Biso   1.000  N
  N94      1.0000 0.59153  0.95900  0.59840  Biso   1.000  N
  N95      1.0000 0.90847  0.45900  0.40160  Biso   1.000  N
  N96      1.0000 0.40847  0.95900  0.40160  Biso   1.000  N
  N97      1.0000 0.90847  0.54100  0.40160  Biso   1.000  N
  N98      1.0000 0.40847  0.04100  0.40160  Biso   1.000  N
  N99      1.0000 0.09153  0.54100  0.59840  Biso   1.000  N
  N100     1.0000 0.59153  0.04100  0.59840  Biso   1.000  N
  N101     1.0000 0.19500  0.46020  0.14830  Biso   1.000  N
  N102     1.0000 0.69500  0.96020  0.14830  Biso   1.000  N
  N103     1.0000 0.80500  0.46020  0.85170  Biso   1.000  N
  N104     1.0000 0.30500  0.96020  0.85170  Biso   1.000  N
  N105     1.0000 0.80500  0.53980  0.85170  Biso   1.000  N
  N106     1.0000 0.30500  0.03980  0.85170  Biso   1.000  N
  N107     1.0000 0.19500  0.53980  0.14830  Biso   1.000  N
  N108     1.0000 0.69500  0.03980  0.14830  Biso   1.000  N
  N109     1.0000 0.25349  0.06670  0.88960  Biso   1.000  N
  N110     1.0000 0.75349  0.56670  0.88960  Biso   1.000  N
  N111     1.0000 0.74651  0.06670  0.11040  Biso   1.000  N
  N112     1.0000 0.24651  0.56670  0.11040  Biso   1.000  N
  N113     1.0000 0.74651  0.93330  0.11040  Biso   1.000  N
  N114     1.0000 0.24651  0.43330  0.11040  Biso   1.000  N
  N115     1.0000 0.25349  0.93330  0.88960  Biso   1.000  N
  N116     1.0000 0.75349  0.43330  0.88960  Biso   1.000  N
  N117     1.0000 0.04447  0.46030  0.13990  Biso   1.000  N
  N118     1.0000 0.54447  0.96030  0.13990  Biso   1.000  N
  N119     1.0000 0.95553  0.46030  0.86010  Biso   1.000  N
  N120     1.0000 0.45553  0.96030  0.86010  Biso   1.000  N
  N121     1.0000 0.95553  0.53970  0.86010  Biso   1.000  N
  N122     1.0000 0.45553  0.03970  0.86010  Biso   1.000  N
  N123     1.0000 0.04447  0.53970  0.13990  Biso   1.000  N
  N124     1.0000 0.54447  0.03970  0.13990  Biso   1.000  N
  N125     1.0000 0.98875  0.43310  0.10770  Biso   1.000  N
  N126     1.0000 0.48875  0.93310  0.10770  Biso   1.000  N
  N127     1.0000 0.01125  0.43310  0.89230  Biso   1.000  N
  N128     1.0000 0.51125  0.93310  0.89230  Biso   1.000  N
  N129     1.0000 0.01125  0.56690  0.89230  Biso   1.000  N
  N130     1.0000 0.51125  0.06690  0.89230  Biso   1.000  N
  N131     1.0000 0.98875  0.56690  0.10770  Biso   1.000  N
  N132     1.0000 0.48875  0.06690  0.10770  Biso   1.000  N
  N133     1.0000 0.08157  0.28650  0.00880  Biso   1.000  N
  N134     1.0000 0.58157  0.78650  0.00880  Biso   1.000  N
  N135     1.0000 0.91843  0.28650  0.99120  Biso   1.000  N
  N136     1.0000 0.41843  0.78650  0.99120  Biso   1.000  N
  N137     1.0000 0.91843  0.71350  0.99120  Biso   1.000  N
  N138     1.0000 0.41843  0.21350  0.99120  Biso   1.000  N
  N139     1.0000 0.08157  0.71350  0.00880  Biso   1.000  N
  N140     1.0000 0.58157  0.21350  0.00880  Biso   1.000  N
  N141     1.0000 0.12683  0.30570  0.07050  Biso   1.000  N
  N142     1.0000 0.62683  0.80570  0.07050  Biso   1.000  N
  N143     1.0000 0.87317  0.30570  0.92950  Biso   1.000  N
  N144     1.0000 0.37317  0.80570  0.92950  Biso   1.000  N
  N145     1.0000 0.87317  0.69430  0.92950  Biso   1.000  N
  N146     1.0000 0.37317  0.19430  0.92950  Biso   1.000  N
  N147     1.0000 0.12683  0.69430  0.07050  Biso   1.000  N
  N148     1.0000 0.62683  0.19430  0.07050  Biso   1.000  N
  N149     1.0000 0.32106  0.22770  0.95310  Biso   1.000  N
  N150     1.0000 0.82106  0.72770  0.95310  Biso   1.000  N
  N151     1.0000 0.67894  0.22770  0.04690  Biso   1.000  N
  N152     1.0000 0.17894  0.72770  0.04690  Biso   1.000  N
  N153     1.0000 0.67894  0.77230  0.04690  Biso   1.000  N
  N154     1.0000 0.17894  0.27230  0.04690  Biso   1.000  N
  N155     1.0000 0.32106  0.77230  0.95310  Biso   1.000  N
  N156     1.0000 0.82106  0.27230  0.95310  Biso   1.000  N
  N157     1.0000 0.16870  0.23100  0.97000  Biso   1.000  N
  N158     1.0000 0.66870  0.73100  0.97000  Biso   1.000  N
  N159     1.0000 0.83130  0.23100  0.03000  Biso   1.000  N
  N160     1.0000 0.33130  0.73100  0.03000  Biso   1.000  N
  N161     1.0000 0.83130  0.76900  0.03000  Biso   1.000  N
  N162     1.0000 0.33130  0.26900  0.03000  Biso   1.000  N
  N163     1.0000 0.16870  0.76900  0.97000  Biso   1.000  N
  N164     1.0000 0.66870  0.26900  0.97000  Biso   1.000  N
  C1       1.0000 0.20220  0.29870  0.73470  Biso   1.000  C
  C2       1.0000 0.70220  0.79870  0.73470  Biso   1.000  C
  C3       1.0000 0.79780  0.29870  0.26530  Biso   1.000  C
  C4       1.0000 0.29780  0.79870  0.26530  Biso   1.000  C
  C5       1.0000 0.79780  0.70130  0.26530  Biso   1.000  C
  C6       1.0000 0.29780  0.20130  0.26530  Biso   1.000  C
  C7       1.0000 0.20220  0.70130  0.73470  Biso   1.000  C
  C8       1.0000 0.70220  0.20130  0.73470  Biso   1.000  C
  C9       1.0000 0.20030  0.37260  0.79150  Biso   1.000  C
  C10      1.0000 0.70030  0.87260  0.79150  Biso   1.000  C
  C11      1.0000 0.79970  0.37260  0.20850  Biso   1.000  C
  C12      1.0000 0.29970  0.87260  0.20850  Biso   1.000  C
  C13      1.0000 0.79970  0.62740  0.20850  Biso   1.000  C
  C14      1.0000 0.29970  0.12740  0.20850  Biso   1.000  C
  C15      1.0000 0.20030  0.62740  0.79150  Biso   1.000  C
  C16      1.0000 0.70030  0.12740  0.79150  Biso   1.000  C
  H1       1.0000 0.21640  0.41790  0.75910  Biso   1.000  H
  H2       1.0000 0.71640  0.91790  0.75910  Biso   1.000  H
  H3       1.0000 0.78360  0.41790  0.24090  Biso   1.000  H
  H4       1.0000 0.28360  0.91790  0.24090  Biso   1.000  H
  H5       1.0000 0.78360  0.58210  0.24090  Biso   1.000  H
  H6       1.0000 0.28360  0.08210  0.24090  Biso   1.000  H
  H7       1.0000 0.21640  0.58210  0.75910  Biso   1.000  H
  H8       1.0000 0.71640  0.08210  0.75910  Biso   1.000  H
  H9       1.0000 0.22520  0.36420  0.84610  Biso   1.000  H
  H10      1.0000 0.72520  0.86420  0.84610  Biso   1.000  H
  H11      1.0000 0.77480  0.36420  0.15390  Biso   1.000  H
  H12      1.0000 0.27480  0.86420  0.15390  Biso   1.000  H
  H13      1.0000 0.77480  0.63580  0.15390  Biso   1.000  H
  H14      1.0000 0.27480  0.13580  0.15390  Biso   1.000  H
  H15      1.0000 0.22520  0.63580  0.84610  Biso   1.000  H
  H16      1.0000 0.72520  0.13580  0.84610  Biso   1.000  H
  H17      1.0000 0.15820  0.38350  0.80620  Biso   1.000  H
  H18      1.0000 0.65820  0.88350  0.80620  Biso   1.000  H
  H19      1.0000 0.84180  0.38350  0.19380  Biso   1.000  H
  H20      1.0000 0.34180  0.88350  0.19380  Biso   1.000  H
  H21      1.0000 0.84180  0.61650  0.19380  Biso   1.000  H
  H22      1.0000 0.34180  0.11650  0.19380  Biso   1.000  H
  H23      1.0000 0.15820  0.61650  0.80620  Biso   1.000  H
  H24      1.0000 0.65820  0.11650  0.80620  Biso   1.000  H
  C17      1.0000 0.16700  0.00000  0.47630  Biso   1.000  C
  C18      1.0000 0.66700  0.50000  0.47630  Biso   1.000  C
  C19      1.0000 0.83300  0.00000  0.52370  Biso   1.000  C
  C20      1.0000 0.33300  0.50000  0.52370  Biso   1.000  C
  C21      1.0000 0.09980  0.00000  0.49180  Biso   1.000  C
  C22      1.0000 0.59980  0.50000  0.49180  Biso   1.000  C
  C23      1.0000 0.90020  0.00000  0.50820  Biso   1.000  C
  C24      1.0000 0.40020  0.50000  0.50820  Biso   1.000  C
  H25      1.0000 0.08520  0.94500  0.49540  Biso   1.000  H
  H26      1.0000 0.58520  0.44500  0.49540  Biso   1.000  H
  H27      1.0000 0.91480  0.94500  0.50460  Biso   1.000  H
  H28      1.0000 0.41480  0.44500  0.50460  Biso   1.000  H
  H29      1.0000 0.91480  0.05500  0.50460  Biso   1.000  H
  H30      1.0000 0.41480  0.55500  0.50460  Biso   1.000  H
  H31      1.0000 0.08520  0.05500  0.49540  Biso   1.000  H
  H32      1.0000 0.58520  0.55500  0.49540  Biso   1.000  H
  H33      1.0000 0.07790  0.02730  0.44270  Biso   1.000  H
  H34      1.0000 0.57790  0.52730  0.44270  Biso   1.000  H
  H35      1.0000 0.92210  0.02730  0.55730  Biso   1.000  H
  H36      1.0000 0.42210  0.52730  0.55730  Biso   1.000  H
  H37      1.0000 0.92210  0.97270  0.55730  Biso   1.000  H
  H38      1.0000 0.42210  0.47270  0.55730  Biso   1.000  H
  H39      1.0000 0.07790  0.97270  0.44270  Biso   1.000  H
  H40      1.0000 0.57790  0.47270  0.44270  Biso   1.000  H
  H41      1.0000 0.09240  0.02770  0.54730  Biso   1.000  H
  H42      1.0000 0.59240  0.52770  0.54730  Biso   1.000  H
  H43      1.0000 0.90760  0.02770  0.45270  Biso   1.000  H
  H44      1.0000 0.40760  0.52770  0.45270  Biso   1.000  H
  H45      1.0000 0.90760  0.97230  0.45270  Biso   1.000  H
  H46      1.0000 0.40760  0.47230  0.45270  Biso   1.000  H
  H47      1.0000 0.09240  0.97230  0.54730  Biso   1.000  H
  H48      1.0000 0.59240  0.47230  0.54730  Biso   1.000  H
  C25      1.0000 0.13700  0.26500  0.32330  Biso   1.000  C
  C26      1.0000 0.63700  0.76500  0.32330  Biso   1.000  C
  C27      1.0000 0.86300  0.26500  0.67670  Biso   1.000  C
  C28      1.0000 0.36300  0.76500  0.67670  Biso   1.000  C
  C29      1.0000 0.86300  0.73500  0.67670  Biso   1.000  C
  C30      1.0000 0.36300  0.23500  0.67670  Biso   1.000  C
  C31      1.0000 0.13700  0.73500  0.32330  Biso   1.000  C
  C32      1.0000 0.63700  0.23500  0.32330  Biso   1.000  C
  C33      1.0000 0.13420  0.19100  0.26650  Biso   1.000  C
  C34      1.0000 0.63420  0.69100  0.26650  Biso   1.000  C
  C35      1.0000 0.86580  0.19100  0.73350  Biso   1.000  C
  C36      1.0000 0.36580  0.69100  0.73350  Biso   1.000  C
  C37      1.0000 0.86580  0.80900  0.73350  Biso   1.000  C
  C38      1.0000 0.36580  0.30900  0.73350  Biso   1.000  C
  C39      1.0000 0.13420  0.80900  0.26650  Biso   1.000  C
  C40      1.0000 0.63420  0.30900  0.26650  Biso   1.000  C
  H49      1.0000 0.09160  0.17590  0.25460  Biso   1.000  H
  H50      1.0000 0.59160  0.67590  0.25460  Biso   1.000  H
  H51      1.0000 0.90840  0.17590  0.74540  Biso   1.000  H
  H52      1.0000 0.40840  0.67590  0.74540  Biso   1.000  H
  H53      1.0000 0.90840  0.82410  0.74540  Biso   1.000  H
  H54      1.0000 0.40840  0.32410  0.74540  Biso   1.000  H
  H55      1.0000 0.09160  0.82410  0.25460  Biso   1.000  H
  H56      1.0000 0.59160  0.32410  0.25460  Biso   1.000  H
  H57      1.0000 0.15570  0.14750  0.29770  Biso   1.000  H
  H58      1.0000 0.65570  0.64750  0.29770  Biso   1.000  H
  H59      1.0000 0.84430  0.14750  0.70230  Biso   1.000  H
  H60      1.0000 0.34430  0.64750  0.70230  Biso   1.000  H
  H61      1.0000 0.84430  0.85250  0.70230  Biso   1.000  H
  H62      1.0000 0.34430  0.35250  0.70230  Biso   1.000  H
  H63      1.0000 0.15570  0.85250  0.29770  Biso   1.000  H
  H64      1.0000 0.65570  0.35250  0.29770  Biso   1.000  H
  H65      1.0000 0.15350  0.20160  0.21050  Biso   1.000  H
  H66      1.0000 0.65350  0.70160  0.21050  Biso   1.000  H
  H67      1.0000 0.84650  0.20160  0.78950  Biso   1.000  H
  H68      1.0000 0.34650  0.70160  0.78950  Biso   1.000  H
  H69      1.0000 0.84650  0.79840  0.78950  Biso   1.000  H
  H70      1.0000 0.34650  0.29840  0.78950  Biso   1.000  H
  H71      1.0000 0.15350  0.79840  0.21050  Biso   1.000  H
  H72      1.0000 0.65350  0.29840  0.21050  Biso   1.000  H
  C41      1.0000 0.98090  0.34500  0.36770  Biso   1.000  C
  C42      1.0000 0.48090  0.84500  0.36770  Biso   1.000  C
  C43      1.0000 0.01910  0.34500  0.63230  Biso   1.000  C
  C44      1.0000 0.51910  0.84500  0.63230  Biso   1.000  C
  C45      1.0000 0.01910  0.65500  0.63230  Biso   1.000  C
  C46      1.0000 0.51910  0.15500  0.63230  Biso   1.000  C
  C47      1.0000 0.98090  0.65500  0.36770  Biso   1.000  C
  C48      1.0000 0.48090  0.15500  0.36770  Biso   1.000  C
  H73      1.0000 0.94450  0.31250  0.37630  Biso   1.000  H
  H74      1.0000 0.44450  0.81250  0.37630  Biso   1.000  H
  H75      1.0000 0.05550  0.31250  0.62370  Biso   1.000  H
  H76      1.0000 0.55550  0.81250  0.62370  Biso   1.000  H
  H77      1.0000 0.05550  0.68750  0.62370  Biso   1.000  H
  H78      1.0000 0.55550  0.18750  0.62370  Biso   1.000  H
  H79      1.0000 0.94450  0.68750  0.37630  Biso   1.000  H
  H80      1.0000 0.44450  0.18750  0.37630  Biso   1.000  H
  H81      1.0000 0.01400  0.32700  0.40840  Biso   1.000  H
  H82      1.0000 0.51400  0.82700  0.40840  Biso   1.000  H
  H83      1.0000 0.98600  0.32700  0.59160  Biso   1.000  H
  H84      1.0000 0.48600  0.82700  0.59160  Biso   1.000  H
  H85      1.0000 0.98600  0.67300  0.59160  Biso   1.000  H
  H86      1.0000 0.48600  0.17300  0.59160  Biso   1.000  H
  H87      1.0000 0.01400  0.67300  0.40840  Biso   1.000  H
  H88      1.0000 0.51400  0.17300  0.40840  Biso   1.000  H
  H89      1.0000 0.99320  0.33950  0.30660  Biso   1.000  H
  H90      1.0000 0.49320  0.83950  0.30660  Biso   1.000  H
  H91      1.0000 0.00680  0.33950  0.69340  Biso   1.000  H
  H92      1.0000 0.50680  0.83950  0.69340  Biso   1.000  H
  H93      1.0000 0.00680  0.66050  0.69340  Biso   1.000  H
  H94      1.0000 0.50680  0.16050  0.69340  Biso   1.000  H
  H95      1.0000 0.99320  0.66050  0.30660  Biso   1.000  H
  H96      1.0000 0.49320  0.16050  0.30660  Biso   1.000  H
  C49      1.0000 0.22310  0.00000  0.91150  Biso   1.000  C
  C50      1.0000 0.72310  0.50000  0.91150  Biso   1.000  C
  C51      1.0000 0.77690  0.00000  0.08850  Biso   1.000  C
  C52      1.0000 0.27690  0.50000  0.08850  Biso   1.000  C
  C53      1.0000 0.16260  0.00000  0.95750  Biso   1.000  C
  C54      1.0000 0.66260  0.50000  0.95750  Biso   1.000  C
  C55      1.0000 0.83740  0.00000  0.04250  Biso   1.000  C
  C56      1.0000 0.33740  0.50000  0.04250  Biso   1.000  C
  H97      1.0000 0.37050  0.51250  0.08560  Biso   1.000  H
  H98      1.0000 0.87050  0.01250  0.08560  Biso   1.000  H
  H99      1.0000 0.62950  0.51250  0.91440  Biso   1.000  H
  H100     1.0000 0.12950  0.01250  0.91440  Biso   1.000  H
  H101     1.0000 0.62950  0.48750  0.91440  Biso   1.000  H
  H102     1.0000 0.12950  0.98750  0.91440  Biso   1.000  H
  H103     1.0000 0.37050  0.48750  0.08560  Biso   1.000  H
  H104     1.0000 0.87050  0.98750  0.08560  Biso   1.000  H
  H105     1.0000 0.33610  0.54020  0.99540  Biso   1.000  H
  H106     1.0000 0.83610  0.04020  0.99540  Biso   1.000  H
  H107     1.0000 0.66390  0.54020  0.00460  Biso   1.000  H
  H108     1.0000 0.16390  0.04020  0.00460  Biso   1.000  H
  H109     1.0000 0.66390  0.45980  0.00460  Biso   1.000  H
  H110     1.0000 0.16390  0.95980  0.00460  Biso   1.000  H
  H111     1.0000 0.33610  0.45980  0.99540  Biso   1.000  H
  H112     1.0000 0.83610  0.95980  0.99540  Biso   1.000  H
  H113     1.0000 0.34420  0.44730  0.01680  Biso   1.000  H
  H114     1.0000 0.84420  0.94730  0.01680  Biso   1.000  H
  H115     1.0000 0.65580  0.44730  0.98320  Biso   1.000  H
  H116     1.0000 0.15580  0.94730  0.98320  Biso   1.000  H
  H117     1.0000 0.65580  0.55270  0.98320  Biso   1.000  H
  H118     1.0000 0.15580  0.05270  0.98320  Biso   1.000  H
  H119     1.0000 0.34420  0.55270  0.01680  Biso   1.000  H
  H120     1.0000 0.84420  0.05270  0.01680  Biso   1.000  H
  C57      1.0000 0.95540  0.50000  0.09050  Biso   1.000  C
  C58      1.0000 0.45540  0.00000  0.09050  Biso   1.000  C
  C59      1.0000 0.04460  0.50000  0.90950  Biso   1.000  C
  C60      1.0000 0.54460  0.00000  0.90950  Biso   1.000  C
  C61      1.0000 0.88890  0.50000  0.05660  Biso   1.000  C
  C62      1.0000 0.38890  0.00000  0.05660  Biso   1.000  C
  C63      1.0000 0.11110  0.50000  0.94340  Biso   1.000  C
  C64      1.0000 0.61110  0.00000  0.94340  Biso   1.000  C
  H121     1.0000 0.87700  0.44590  0.03880  Biso   1.000  H
  H122     1.0000 0.37700  0.94590  0.03880  Biso   1.000  H
  H123     1.0000 0.12300  0.44590  0.96120  Biso   1.000  H
  H124     1.0000 0.62300  0.94590  0.96120  Biso   1.000  H
  H125     1.0000 0.12300  0.55410  0.96120  Biso   1.000  H
  H126     1.0000 0.62300  0.05410  0.96120  Biso   1.000  H
  H127     1.0000 0.87700  0.55410  0.03880  Biso   1.000  H
  H128     1.0000 0.37700  0.05410  0.03880  Biso   1.000  H
  H129     1.0000 0.88400  0.53590  0.00570  Biso   1.000  H
  H130     1.0000 0.38400  0.03590  0.00570  Biso   1.000  H
  H131     1.0000 0.11600  0.53590  0.99430  Biso   1.000  H
  H132     1.0000 0.61600  0.03590  0.99430  Biso   1.000  H
  H133     1.0000 0.11600  0.46410  0.99430  Biso   1.000  H
  H134     1.0000 0.61600  0.96410  0.99430  Biso   1.000  H
  H135     1.0000 0.88400  0.46410  0.00570  Biso   1.000  H
  H136     1.0000 0.38400  0.96410  0.00570  Biso   1.000  H
  H137     1.0000 0.86310  0.51820  0.10380  Biso   1.000  H
  H138     1.0000 0.36310  0.01820  0.10380  Biso   1.000  H
  H139     1.0000 0.13690  0.51820  0.89620  Biso   1.000  H
  H140     1.0000 0.63690  0.01820  0.89620  Biso   1.000  H
  H141     1.0000 0.13690  0.48180  0.89620  Biso   1.000  H
  H142     1.0000 0.63690  0.98180  0.89620  Biso   1.000  H
  H143     1.0000 0.86310  0.48180  0.10380  Biso   1.000  H
  H144     1.0000 0.36310  0.98180  0.10380  Biso   1.000  H
  C65      1.0000 0.10840  0.24050  0.94810  Biso   1.000  C
  C66      1.0000 0.60840  0.74050  0.94810  Biso   1.000  C
  C67      1.0000 0.89160  0.24050  0.05190  Biso   1.000  C
  C68      1.0000 0.39160  0.74050  0.05190  Biso   1.000  C
  C69      1.0000 0.89160  0.75950  0.05190  Biso   1.000  C
  C70      1.0000 0.39160  0.25950  0.05190  Biso   1.000  C
  C71      1.0000 0.10840  0.75950  0.94810  Biso   1.000  C
  C72      1.0000 0.60840  0.25950  0.94810  Biso   1.000  C
  C73      1.0000 0.07560  0.20650  0.86660  Biso   1.000  C
  C74      1.0000 0.57560  0.70650  0.86660  Biso   1.000  C
  C75      1.0000 0.92440  0.20650  0.13340  Biso   1.000  C
  C76      1.0000 0.42440  0.70650  0.13340  Biso   1.000  C
  C77      1.0000 0.92440  0.79350  0.13340  Biso   1.000  C
  C78      1.0000 0.42440  0.29350  0.13340  Biso   1.000  C
  C79      1.0000 0.07560  0.79350  0.86660  Biso   1.000  C
  C80      1.0000 0.57560  0.29350  0.86660  Biso   1.000  C
  H145     1.0000 0.03270  0.19800  0.87860  Biso   1.000  H
  H146     1.0000 0.53270  0.69800  0.87860  Biso   1.000  H
  H147     1.0000 0.96730  0.19800  0.12140  Biso   1.000  H
  H148     1.0000 0.46730  0.69800  0.12140  Biso   1.000  H
  H149     1.0000 0.96730  0.80200  0.12140  Biso   1.000  H
  H150     1.0000 0.46730  0.30200  0.12140  Biso   1.000  H
  H151     1.0000 0.03270  0.80200  0.87860  Biso   1.000  H
  H152     1.0000 0.53270  0.30200  0.87860  Biso   1.000  H
  H153     1.0000 0.09430  0.15560  0.85120  Biso   1.000  H
  H154     1.0000 0.59430  0.65560  0.85120  Biso   1.000  H
  H155     1.0000 0.90570  0.15560  0.14880  Biso   1.000  H
  H156     1.0000 0.40570  0.65560  0.14880  Biso   1.000  H
  H157     1.0000 0.90570  0.84440  0.14880  Biso   1.000  H
  H158     1.0000 0.40570  0.34440  0.14880  Biso   1.000  H
  H159     1.0000 0.09430  0.84440  0.85120  Biso   1.000  H
  H160     1.0000 0.59430  0.34440  0.85120  Biso   1.000  H
  H161     1.0000 0.07870  0.24390  0.81730  Biso   1.000  H
  H162     1.0000 0.57870  0.74390  0.81730  Biso   1.000  H
  H163     1.0000 0.92130  0.24390  0.18270  Biso   1.000  H
  H164     1.0000 0.42130  0.74390  0.18270  Biso   1.000  H
  H165     1.0000 0.92130  0.75610  0.18270  Biso   1.000  H
  H166     1.0000 0.42130  0.25610  0.18270  Biso   1.000  H
  H167     1.0000 0.07870  0.75610  0.81730  Biso   1.000  H
  H168     1.0000 0.57870  0.25610  0.81730  Biso   1.000  H
