data_image0
_cell_length_a       14.849
_cell_length_b       14.849
_cell_length_c       21.806
_cell_angle_alpha    90
_cell_angle_beta     90
_cell_angle_gamma    120

_symmetry_space_group_name_H-M    "P 1"
_symmetry_int_tables_number       1

loop_
  _symmetry_equiv_pos_as_xyz
  'x, y, z'

loop_
  _atom_site_label
  _atom_site_occupancy
  _atom_site_fract_x
  _atom_site_fract_y
  _atom_site_fract_z
  _atom_site_thermal_displace_type
  _atom_site_B_iso_or_equiv
  _atom_site_type_symbol
  I1       1.0000 0.71129  0.18518  0.24093  Biso   1.000  I
  I2       1.0000 0.81482  0.52611  0.24093  Biso   1.000  I
  I3       1.0000 0.47389  0.28871  0.24093  Biso   1.000  I
  I4       1.0000 0.18518  0.71129  0.25907  Biso   1.000  I
  I5       1.0000 0.52611  0.81482  0.25907  Biso   1.000  I
  I6       1.0000 0.28871  0.47389  0.25907  Biso   1.000  I
  I7       1.0000 0.28871  0.81482  0.75907  Biso   1.000  I
  I8       1.0000 0.18518  0.47389  0.75907  Biso   1.000  I
  I9       1.0000 0.52611  0.71129  0.75907  Biso   1.000  I
  I10      1.0000 0.81482  0.28871  0.74093  Biso   1.000  I
  I11      1.0000 0.47389  0.18518  0.74093  Biso   1.000  I
  I12      1.0000 0.71129  0.52611  0.74093  Biso   1.000  I
  I13      1.0000 0.66660  0.33330  0.06988  Biso   1.000  I
  I14      1.0000 0.33330  0.66660  0.43012  Biso   1.000  I
  I15      1.0000 0.33340  0.66670  0.93012  Biso   1.000  I
  I16      1.0000 0.66670  0.33340  0.56988  Biso   1.000  I
  Cu1      1.0000 0.86343  0.37898  0.25162  Biso   1.000  Cu
  Cu2      1.0000 0.62102  0.48445  0.25162  Biso   1.000  Cu
  Cu3      1.0000 0.51555  0.13657  0.25162  Biso   1.000  Cu
  Cu4      1.0000 0.37898  0.86343  0.24838  Biso   1.000  Cu
  Cu5      1.0000 0.48445  0.62102  0.24838  Biso   1.000  Cu
  Cu6      1.0000 0.13657  0.51555  0.24838  Biso   1.000  Cu
  Cu7      1.0000 0.13657  0.62102  0.74838  Biso   1.000  Cu
  Cu8      1.0000 0.37898  0.51555  0.74838  Biso   1.000  Cu
  Cu9      1.0000 0.48445  0.86343  0.74838  Biso   1.000  Cu
  Cu10     1.0000 0.62102  0.13657  0.75162  Biso   1.000  Cu
  Cu11     1.0000 0.51555  0.37898  0.75162  Biso   1.000  Cu
  Cu12     1.0000 0.86343  0.48445  0.75162  Biso   1.000  Cu
  Cu13     1.0000 0.76036  0.23465  0.11806  Biso   1.000  Cu
  Cu14     1.0000 0.76535  0.52571  0.11806  Biso   1.000  Cu
  Cu15     1.0000 0.47429  0.23964  0.11806  Biso   1.000  Cu
  Cu16     1.0000 0.23465  0.76036  0.38194  Biso   1.000  Cu
  Cu17     1.0000 0.52571  0.76535  0.38194  Biso   1.000  Cu
  Cu18     1.0000 0.23964  0.47429  0.38194  Biso   1.000  Cu
  Cu19     1.0000 0.23964  0.76535  0.88194  Biso   1.000  Cu
  Cu20     1.0000 0.23465  0.47429  0.88194  Biso   1.000  Cu
  Cu21     1.0000 0.52571  0.76036  0.88194  Biso   1.000  Cu
  Cu22     1.0000 0.76535  0.23964  0.61806  Biso   1.000  Cu
  Cu23     1.0000 0.47429  0.23465  0.61806  Biso   1.000  Cu
  Cu24     1.0000 0.76036  0.52571  0.61806  Biso   1.000  Cu
  Cu25     1.0000 0.66660  0.33330  0.28341  Biso   1.000  Cu
  Cu26     1.0000 0.33330  0.66660  0.21659  Biso   1.000  Cu
  Cu27     1.0000 0.33340  0.66670  0.71659  Biso   1.000  Cu
  Cu28     1.0000 0.66670  0.33340  0.78341  Biso   1.000  Cu
  N1       1.0000 0.95060  0.39030  0.17580  Biso   1.000  N
  N2       1.0000 0.60970  0.56030  0.17580  Biso   1.000  N
  N3       1.0000 0.43970  0.04940  0.17580  Biso   1.000  N
  N4       1.0000 0.39030  0.95060  0.32420  Biso   1.000  N
  N5       1.0000 0.56030  0.60970  0.32420  Biso   1.000  N
  N6       1.0000 0.04940  0.43970  0.32420  Biso   1.000  N
  N7       1.0000 0.04940  0.60970  0.82420  Biso   1.000  N
  N8       1.0000 0.39030  0.43970  0.82420  Biso   1.000  N
  N9       1.0000 0.56030  0.95060  0.82420  Biso   1.000  N
  N10      1.0000 0.60970  0.04940  0.67580  Biso   1.000  N
  N11      1.0000 0.43970  0.39030  0.67580  Biso   1.000  N
  N12      1.0000 0.95060  0.56030  0.67580  Biso   1.000  N
  N13      1.0000 0.05250  0.45690  0.17120  Biso   1.000  N
  N14      1.0000 0.54310  0.59560  0.17120  Biso   1.000  N
  N15      1.0000 0.40440  0.94750  0.17120  Biso   1.000  N
  N16      1.0000 0.45690  0.05250  0.32880  Biso   1.000  N
  N17      1.0000 0.59560  0.54310  0.32880  Biso   1.000  N
  N18      1.0000 0.94750  0.40440  0.32880  Biso   1.000  N
  N19      1.0000 0.94750  0.54310  0.82880  Biso   1.000  N
  N20      1.0000 0.45690  0.40440  0.82880  Biso   1.000  N
  N21      1.0000 0.59560  0.05250  0.82880  Biso   1.000  N
  N22      1.0000 0.54310  0.94750  0.67120  Biso   1.000  N
  N23      1.0000 0.40440  0.45690  0.67120  Biso   1.000  N
  N24      1.0000 0.05250  0.59560  0.67120  Biso   1.000  N
  N25      1.0000 0.08240  0.46060  0.11230  Biso   1.000  N
  N26      1.0000 0.53940  0.62180  0.11230  Biso   1.000  N
  N27      1.0000 0.37820  0.91760  0.11230  Biso   1.000  N
  N28      1.0000 0.46060  0.08240  0.38770  Biso   1.000  N
  N29      1.0000 0.62180  0.53940  0.38770  Biso   1.000  N
  N30      1.0000 0.91760  0.37820  0.38770  Biso   1.000  N
  N31      1.0000 0.91760  0.53940  0.88770  Biso   1.000  N
  N32      1.0000 0.46060  0.37820  0.88770  Biso   1.000  N
  N33      1.0000 0.62180  0.08240  0.88770  Biso   1.000  N
  N34      1.0000 0.53940  0.91760  0.61230  Biso   1.000  N
  N35      1.0000 0.37820  0.46060  0.61230  Biso   1.000  N
  N36      1.0000 0.08240  0.62180  0.61230  Biso   1.000  N
  N37      1.0000 0.91240  0.34820  0.12070  Biso   1.000  N
  N38      1.0000 0.65180  0.56420  0.12070  Biso   1.000  N
  N39      1.0000 0.43580  0.08760  0.12070  Biso   1.000  N
  N40      1.0000 0.34820  0.91240  0.37930  Biso   1.000  N
  N41      1.0000 0.56420  0.65180  0.37930  Biso   1.000  N
  N42      1.0000 0.08760  0.43580  0.37930  Biso   1.000  N
  N43      1.0000 0.08760  0.65180  0.87930  Biso   1.000  N
  N44      1.0000 0.34820  0.43580  0.87930  Biso   1.000  N
  N45      1.0000 0.56420  0.91240  0.87930  Biso   1.000  N
  N46      1.0000 0.65180  0.08760  0.62070  Biso   1.000  N
  N47      1.0000 0.43580  0.34820  0.62070  Biso   1.000  N
  N48      1.0000 0.91240  0.56420  0.62070  Biso   1.000  N
  N49      1.0000 0.09070  0.40560  0.92170  Biso   1.000  N
  N50      1.0000 0.59440  0.68510  0.92170  Biso   1.000  N
  N51      1.0000 0.31490  0.90930  0.92170  Biso   1.000  N
  N52      1.0000 0.40560  0.09070  0.57830  Biso   1.000  N
  N53      1.0000 0.68510  0.59440  0.57830  Biso   1.000  N
  N54      1.0000 0.90930  0.31490  0.57830  Biso   1.000  N
  N55      1.0000 0.90930  0.59440  0.07830  Biso   1.000  N
  N56      1.0000 0.40560  0.31490  0.07830  Biso   1.000  N
  N57      1.0000 0.68510  0.09070  0.07830  Biso   1.000  N
  N58      1.0000 0.59440  0.90930  0.42170  Biso   1.000  N
  N59      1.0000 0.31490  0.40560  0.42170  Biso   1.000  N
  N60      1.0000 0.09070  0.68510  0.42170  Biso   1.000  N
  C1       1.0000 0.08510  0.42430  0.98160  Biso   1.000  C
  C2       1.0000 0.57570  0.66080  0.98160  Biso   1.000  C
  C3       1.0000 0.33920  0.91490  0.98160  Biso   1.000  C
  C4       1.0000 0.42430  0.08510  0.51840  Biso   1.000  C
  C5       1.0000 0.66080  0.57570  0.51840  Biso   1.000  C
  C6       1.0000 0.91490  0.33920  0.51840  Biso   1.000  C
  C7       1.0000 0.91490  0.57570  0.01840  Biso   1.000  C
  C8       1.0000 0.42430  0.33920  0.01840  Biso   1.000  C
  C9       1.0000 0.66080  0.08510  0.01840  Biso   1.000  C
  C10      1.0000 0.57570  0.91490  0.48160  Biso   1.000  C
  C11      1.0000 0.33920  0.42430  0.48160  Biso   1.000  C
  C12      1.0000 0.08510  0.66080  0.48160  Biso   1.000  C
  H1       1.0000 0.14560  0.47240  0.00160  Biso   1.000  H
  H2       1.0000 0.52760  0.67320  0.00160  Biso   1.000  H
  H3       1.0000 0.32680  0.85440  0.00160  Biso   1.000  H
  H4       1.0000 0.47240  0.14560  0.49840  Biso   1.000  H
  H5       1.0000 0.67320  0.52760  0.49840  Biso   1.000  H
  H6       1.0000 0.85440  0.32680  0.49840  Biso   1.000  H
  H7       1.0000 0.85440  0.52760  0.99840  Biso   1.000  H
  H8       1.0000 0.47240  0.32680  0.99840  Biso   1.000  H
  H9       1.0000 0.67320  0.14560  0.99840  Biso   1.000  H
  H10      1.0000 0.52760  0.85440  0.50160  Biso   1.000  H
  H11      1.0000 0.32680  0.47240  0.50160  Biso   1.000  H
  H12      1.0000 0.14560  0.67320  0.50160  Biso   1.000  H
  C13      1.0000 0.99450  0.39370  0.08240  Biso   1.000  C
  C14      1.0000 0.60630  0.60080  0.08240  Biso   1.000  C
  C15      1.0000 0.39920  0.00550  0.08240  Biso   1.000  C
  C16      1.0000 0.39370  0.99450  0.41760  Biso   1.000  C
  C17      1.0000 0.60080  0.60630  0.41760  Biso   1.000  C
  C18      1.0000 0.00550  0.39920  0.41760  Biso   1.000  C
  C19      1.0000 0.00550  0.60630  0.91760  Biso   1.000  C
  C20      1.0000 0.39370  0.39920  0.91760  Biso   1.000  C
  C21      1.0000 0.60080  0.99450  0.91760  Biso   1.000  C
  C22      1.0000 0.60630  0.00550  0.58240  Biso   1.000  C
  C23      1.0000 0.39920  0.39370  0.58240  Biso   1.000  C
  C24      1.0000 0.99450  0.60080  0.58240  Biso   1.000  C
  C25      1.0000 0.99130  0.37400  0.01550  Biso   1.000  C
  C26      1.0000 0.62600  0.61730  0.01550  Biso   1.000  C
  C27      1.0000 0.38270  0.00870  0.01550  Biso   1.000  C
  C28      1.0000 0.37400  0.99130  0.48450  Biso   1.000  C
  C29      1.0000 0.61730  0.62600  0.48450  Biso   1.000  C
  C30      1.0000 0.00870  0.38270  0.48450  Biso   1.000  C
  C31      1.0000 0.00870  0.62600  0.98450  Biso   1.000  C
  C32      1.0000 0.37400  0.38270  0.98450  Biso   1.000  C
  C33      1.0000 0.61730  0.99130  0.98450  Biso   1.000  C
  C34      1.0000 0.62600  0.00870  0.51550  Biso   1.000  C
  C35      1.0000 0.38270  0.37400  0.51550  Biso   1.000  C
  C36      1.0000 0.99130  0.61730  0.51550  Biso   1.000  C
  C37      1.0000 0.00130  0.34150  0.89140  Biso   1.000  C
  C38      1.0000 0.65850  0.65980  0.89140  Biso   1.000  C
  C39      1.0000 0.34020  0.99870  0.89140  Biso   1.000  C
  C40      1.0000 0.34150  0.00130  0.60860  Biso   1.000  C
  C41      1.0000 0.65980  0.65850  0.60860  Biso   1.000  C
  C42      1.0000 0.99870  0.34020  0.60860  Biso   1.000  C
  C43      1.0000 0.99870  0.65850  0.10860  Biso   1.000  C
  C44      1.0000 0.34150  0.34020  0.10860  Biso   1.000  C
  C45      1.0000 0.65980  0.00130  0.10860  Biso   1.000  C
  C46      1.0000 0.65850  0.99870  0.39140  Biso   1.000  C
  C47      1.0000 0.34020  0.34150  0.39140  Biso   1.000  C
  C48      1.0000 0.00130  0.65980  0.39140  Biso   1.000  C
  H13      1.0000 0.00460  0.32660  0.85040  Biso   1.000  H
  H14      1.0000 0.67340  0.67800  0.85040  Biso   1.000  H
  H15      1.0000 0.32200  0.99540  0.85040  Biso   1.000  H
  H16      1.0000 0.32660  0.00460  0.64960  Biso   1.000  H
  H17      1.0000 0.67800  0.67340  0.64960  Biso   1.000  H
  H18      1.0000 0.99540  0.32200  0.64960  Biso   1.000  H
  H19      1.0000 0.99540  0.67340  0.14960  Biso   1.000  H
  H20      1.0000 0.32660  0.32200  0.14960  Biso   1.000  H
  H21      1.0000 0.67800  0.00460  0.14960  Biso   1.000  H
  H22      1.0000 0.67340  0.99540  0.35040  Biso   1.000  H
  H23      1.0000 0.32200  0.32660  0.35040  Biso   1.000  H
  H24      1.0000 0.00460  0.67800  0.35040  Biso   1.000  H
  C49      1.0000 0.90370  0.29700  0.92050  Biso   1.000  C
  C50      1.0000 0.70300  0.60670  0.92050  Biso   1.000  C
  C51      1.0000 0.39330  0.09630  0.92050  Biso   1.000  C
  C52      1.0000 0.29700  0.90370  0.57950  Biso   1.000  C
  C53      1.0000 0.60670  0.70300  0.57950  Biso   1.000  C
  C54      1.0000 0.09630  0.39330  0.57950  Biso   1.000  C
  C55      1.0000 0.09630  0.70300  0.07950  Biso   1.000  C
  C56      1.0000 0.29700  0.39330  0.07950  Biso   1.000  C
  C57      1.0000 0.60670  0.90370  0.07950  Biso   1.000  C
  C58      1.0000 0.70300  0.09630  0.42050  Biso   1.000  C
  C59      1.0000 0.39330  0.29700  0.42050  Biso   1.000  C
  C60      1.0000 0.90370  0.60670  0.42050  Biso   1.000  C
  H25      1.0000 0.84300  0.25830  0.89800  Biso   1.000  H
  H26      1.0000 0.74170  0.58470  0.89800  Biso   1.000  H
  H27      1.0000 0.41530  0.15700  0.89800  Biso   1.000  H
  H28      1.0000 0.25830  0.84300  0.60200  Biso   1.000  H
  H29      1.0000 0.58470  0.74170  0.60200  Biso   1.000  H
  H30      1.0000 0.15700  0.41530  0.60200  Biso   1.000  H
  H31      1.0000 0.15700  0.74170  0.10200  Biso   1.000  H
  H32      1.0000 0.25830  0.41530  0.10200  Biso   1.000  H
  H33      1.0000 0.58470  0.84300  0.10200  Biso   1.000  H
  H34      1.0000 0.74170  0.15700  0.39800  Biso   1.000  H
  H35      1.0000 0.41530  0.25830  0.39800  Biso   1.000  H
  H36      1.0000 0.84300  0.58470  0.39800  Biso   1.000  H
  C61      1.0000 0.89900  0.31140  0.98320  Biso   1.000  C
  C62      1.0000 0.68860  0.58760  0.98320  Biso   1.000  C
  C63      1.0000 0.41240  0.10100  0.98320  Biso   1.000  C
  C64      1.0000 0.31140  0.89900  0.51680  Biso   1.000  C
  C65      1.0000 0.58760  0.68860  0.51680  Biso   1.000  C
  C66      1.0000 0.10100  0.41240  0.51680  Biso   1.000  C
  C67      1.0000 0.10100  0.68860  0.01680  Biso   1.000  C
  C68      1.0000 0.31140  0.41240  0.01680  Biso   1.000  C
  C69      1.0000 0.58760  0.89900  0.01680  Biso   1.000  C
  C70      1.0000 0.68860  0.10100  0.48320  Biso   1.000  C
  C71      1.0000 0.41240  0.31140  0.48320  Biso   1.000  C
  C72      1.0000 0.89900  0.58760  0.48320  Biso   1.000  C
  H37      1.0000 0.83530  0.27990  0.00340  Biso   1.000  H
  H38      1.0000 0.72010  0.55540  0.00340  Biso   1.000  H
  H39      1.0000 0.44460  0.16470  0.00340  Biso   1.000  H
  H40      1.0000 0.27990  0.83530  0.49660  Biso   1.000  H
  H41      1.0000 0.55540  0.72010  0.49660  Biso   1.000  H
  H42      1.0000 0.16470  0.44460  0.49660  Biso   1.000  H
  H43      1.0000 0.16470  0.72010  0.99660  Biso   1.000  H
  H44      1.0000 0.27990  0.44460  0.99660  Biso   1.000  H
  H45      1.0000 0.55540  0.83530  0.99660  Biso   1.000  H
  H46      1.0000 0.72010  0.16470  0.50340  Biso   1.000  H
  H47      1.0000 0.44460  0.27990  0.50340  Biso   1.000  H
  H48      1.0000 0.83530  0.55540  0.50340  Biso   1.000  H
  O1       1.0000 0.66660  0.33330  0.37850  Biso   1.000  O
  O2       1.0000 0.33330  0.66660  0.12150  Biso   1.000  O
  O3       1.0000 0.33340  0.66670  0.62150  Biso   1.000  O
  O4       1.0000 0.66670  0.33340  0.87850  Biso   1.000  O
  O5       1.0000 0.19000  0.19200  0.72300  Biso   1.000  O
  O6       1.0000 0.80800  0.99800  0.72300  Biso   1.000  O
  O7       1.0000 0.00200  0.81000  0.72300  Biso   1.000  O
  O8       1.0000 0.19200  0.19000  0.77700  Biso   1.000  O
  O9       1.0000 0.99800  0.80800  0.77700  Biso   1.000  O
  O10      1.0000 0.81000  0.00200  0.77700  Biso   1.000  O
  O11      1.0000 0.81000  0.80800  0.27700  Biso   1.000  O
  O12      1.0000 0.19200  0.00200  0.27700  Biso   1.000  O
  O13      1.0000 0.99800  0.19000  0.27700  Biso   1.000  O
  O14      1.0000 0.80800  0.81000  0.22300  Biso   1.000  O
  O15      1.0000 0.00200  0.19200  0.22300  Biso   1.000  O
  O16      1.0000 0.19000  0.99800  0.22300  Biso   1.000  O
