data_image0
_cell_length_a       17.47
_cell_length_b       16.437
_cell_length_c       7.155
_cell_angle_alpha    90
_cell_angle_beta     99
_cell_angle_gamma    90

_symmetry_space_group_name_H-M    "P 1"
_symmetry_int_tables_number       1

loop_
  _symmetry_equiv_pos_as_xyz
  'x, y, z'

loop_
  _atom_site_label
  _atom_site_occupancy
  _atom_site_fract_x
  _atom_site_fract_y
  _atom_site_fract_z
  _atom_site_thermal_displace_type
  _atom_site_B_iso_or_equiv
  _atom_site_type_symbol
  Cu1      1.0000 0.21484  0.00000  0.00751  Biso   1.000  Cu
  Cu2      1.0000 0.71484  0.50000  0.00751  Biso   1.000  Cu
  Cu3      1.0000 0.78516  0.00000  0.99249  Biso   1.000  Cu
  Cu4      1.0000 0.28516  0.50000  0.99249  Biso   1.000  Cu
  C1       1.0000 0.29010  0.14400  0.84840  Biso   1.000  C
  C2       1.0000 0.79010  0.64400  0.84840  Biso   1.000  C
  C3       1.0000 0.70990  0.14400  0.15160  Biso   1.000  C
  C4       1.0000 0.20990  0.64400  0.15160  Biso   1.000  C
  C5       1.0000 0.70990  0.85600  0.15160  Biso   1.000  C
  C6       1.0000 0.20990  0.35600  0.15160  Biso   1.000  C
  C7       1.0000 0.29010  0.85600  0.84840  Biso   1.000  C
  C8       1.0000 0.79010  0.35600  0.84840  Biso   1.000  C
  C9       1.0000 0.27890  0.08060  0.70600  Biso   1.000  C
  C10      1.0000 0.77890  0.58060  0.70600  Biso   1.000  C
  C11      1.0000 0.72110  0.08060  0.29400  Biso   1.000  C
  C12      1.0000 0.22110  0.58060  0.29400  Biso   1.000  C
  C13      1.0000 0.72110  0.91940  0.29400  Biso   1.000  C
  C14      1.0000 0.22110  0.41940  0.29400  Biso   1.000  C
  C15      1.0000 0.27890  0.91940  0.70600  Biso   1.000  C
  C16      1.0000 0.77890  0.41940  0.70600  Biso   1.000  C
  C17      1.0000 0.30170  0.20100  0.71450  Biso   1.000  C
  C18      1.0000 0.80170  0.70100  0.71450  Biso   1.000  C
  C19      1.0000 0.69830  0.20100  0.28550  Biso   1.000  C
  C20      1.0000 0.19830  0.70100  0.28550  Biso   1.000  C
  C21      1.0000 0.69830  0.79900  0.28550  Biso   1.000  C
  C22      1.0000 0.19830  0.29900  0.28550  Biso   1.000  C
  C23      1.0000 0.30170  0.79900  0.71450  Biso   1.000  C
  C24      1.0000 0.80170  0.29900  0.71450  Biso   1.000  C
  C25      1.0000 0.29050  0.14160  0.57700  Biso   1.000  C
  C26      1.0000 0.79050  0.64160  0.57700  Biso   1.000  C
  C27      1.0000 0.70950  0.14160  0.42300  Biso   1.000  C
  C28      1.0000 0.20950  0.64160  0.42300  Biso   1.000  C
  C29      1.0000 0.70950  0.85840  0.42300  Biso   1.000  C
  C30      1.0000 0.20950  0.35840  0.42300  Biso   1.000  C
  C31      1.0000 0.29050  0.85840  0.57700  Biso   1.000  C
  C32      1.0000 0.79050  0.35840  0.57700  Biso   1.000  C
  C33      1.0000 0.24430  0.21910  0.57180  Biso   1.000  C
  C34      1.0000 0.74430  0.71910  0.57180  Biso   1.000  C
  C35      1.0000 0.75570  0.21910  0.42820  Biso   1.000  C
  C36      1.0000 0.25570  0.71910  0.42820  Biso   1.000  C
  C37      1.0000 0.75570  0.78090  0.42820  Biso   1.000  C
  C38      1.0000 0.25570  0.28090  0.42820  Biso   1.000  C
  C39      1.0000 0.24430  0.78090  0.57180  Biso   1.000  C
  C40      1.0000 0.74430  0.28090  0.57180  Biso   1.000  C
  C41      1.0000 0.16720  0.19900  0.60900  Biso   1.000  C
  C42      1.0000 0.66720  0.69900  0.60900  Biso   1.000  C
  C43      1.0000 0.83280  0.19900  0.39100  Biso   1.000  C
  C44      1.0000 0.33280  0.69900  0.39100  Biso   1.000  C
  C45      1.0000 0.83280  0.80100  0.39100  Biso   1.000  C
  C46      1.0000 0.33280  0.30100  0.39100  Biso   1.000  C
  C47      1.0000 0.16720  0.80100  0.60900  Biso   1.000  C
  C48      1.0000 0.66720  0.30100  0.60900  Biso   1.000  C
  C49      1.0000 0.19300  0.21840  0.67900  Biso   1.000  C
  C50      1.0000 0.69300  0.71840  0.67900  Biso   1.000  C
  C51      1.0000 0.80700  0.21840  0.32100  Biso   1.000  C
  C52      1.0000 0.30700  0.71840  0.32100  Biso   1.000  C
  C53      1.0000 0.80700  0.78160  0.32100  Biso   1.000  C
  C54      1.0000 0.30700  0.28160  0.32100  Biso   1.000  C
  C55      1.0000 0.19300  0.78160  0.67900  Biso   1.000  C
  C56      1.0000 0.69300  0.28160  0.67900  Biso   1.000  C
  C57      1.0000 0.16300  0.13100  0.72700  Biso   1.000  C
  C58      1.0000 0.66300  0.63100  0.72700  Biso   1.000  C
  C59      1.0000 0.83700  0.13100  0.27300  Biso   1.000  C
  C60      1.0000 0.33700  0.63100  0.27300  Biso   1.000  C
  C61      1.0000 0.83700  0.86900  0.27300  Biso   1.000  C
  C62      1.0000 0.33700  0.36900  0.27300  Biso   1.000  C
  C63      1.0000 0.16300  0.86900  0.72700  Biso   1.000  C
  C64      1.0000 0.66300  0.36900  0.72700  Biso   1.000  C
  C65      1.0000 0.18000  0.15700  0.79800  Biso   1.000  C
  C66      1.0000 0.68000  0.65700  0.79800  Biso   1.000  C
  C67      1.0000 0.82000  0.15700  0.20200  Biso   1.000  C
  C68      1.0000 0.32000  0.65700  0.20200  Biso   1.000  C
  C69      1.0000 0.82000  0.84300  0.20200  Biso   1.000  C
  C70      1.0000 0.32000  0.34300  0.20200  Biso   1.000  C
  C71      1.0000 0.18000  0.84300  0.79800  Biso   1.000  C
  C72      1.0000 0.68000  0.34300  0.79800  Biso   1.000  C
  C73      1.0000 0.08700  0.06300  0.19100  Biso   1.000  C
  C74      1.0000 0.58700  0.56300  0.19100  Biso   1.000  C
  C75      1.0000 0.91300  0.06300  0.80900  Biso   1.000  C
  C76      1.0000 0.41300  0.56300  0.80900  Biso   1.000  C
  C77      1.0000 0.91300  0.93700  0.80900  Biso   1.000  C
  C78      1.0000 0.41300  0.43700  0.80900  Biso   1.000  C
  C79      1.0000 0.08700  0.93700  0.19100  Biso   1.000  C
  C80      1.0000 0.58700  0.43700  0.19100  Biso   1.000  C
  C81      1.0000 0.11900  0.06900  0.25500  Biso   1.000  C
  C82      1.0000 0.61900  0.56900  0.25500  Biso   1.000  C
  C83      1.0000 0.88100  0.06900  0.74500  Biso   1.000  C
  C84      1.0000 0.38100  0.56900  0.74500  Biso   1.000  C
  C85      1.0000 0.88100  0.93100  0.74500  Biso   1.000  C
  C86      1.0000 0.38100  0.43100  0.74500  Biso   1.000  C
  C87      1.0000 0.11900  0.93100  0.25500  Biso   1.000  C
  C88      1.0000 0.61900  0.43100  0.25500  Biso   1.000  C
  C89      1.0000 0.03900  0.06970  0.32600  Biso   1.000  C
  C90      1.0000 0.53900  0.56970  0.32600  Biso   1.000  C
  C91      1.0000 0.96100  0.06970  0.67400  Biso   1.000  C
  C92      1.0000 0.46100  0.56970  0.67400  Biso   1.000  C
  C93      1.0000 0.96100  0.93030  0.67400  Biso   1.000  C
  C94      1.0000 0.46100  0.43030  0.67400  Biso   1.000  C
  C95      1.0000 0.03900  0.93030  0.32600  Biso   1.000  C
  C96      1.0000 0.53900  0.43030  0.32600  Biso   1.000  C
  C97      1.0000 0.06500  0.06620  0.39200  Biso   1.000  C
  C98      1.0000 0.56500  0.56620  0.39200  Biso   1.000  C
  C99      1.0000 0.93500  0.06620  0.60800  Biso   1.000  C
  C100     1.0000 0.43500  0.56620  0.60800  Biso   1.000  C
  C101     1.0000 0.93500  0.93380  0.60800  Biso   1.000  C
  C102     1.0000 0.43500  0.43380  0.60800  Biso   1.000  C
  C103     1.0000 0.06500  0.93380  0.39200  Biso   1.000  C
  C104     1.0000 0.56500  0.43380  0.39200  Biso   1.000  C
  C105     1.0000 0.02570  0.00000  0.42570  Biso   1.000  C
  C106     1.0000 0.52570  0.50000  0.42570  Biso   1.000  C
  C107     1.0000 0.97430  0.00000  0.57430  Biso   1.000  C
  C108     1.0000 0.47430  0.50000  0.57430  Biso   1.000  C
  N1       1.0000 0.22260  0.09980  0.83750  Biso   1.000  N
  N2       1.0000 0.72260  0.59980  0.83750  Biso   1.000  N
  N3       1.0000 0.77740  0.09980  0.16250  Biso   1.000  N
  N4       1.0000 0.27740  0.59980  0.16250  Biso   1.000  N
  N5       1.0000 0.77740  0.90020  0.16250  Biso   1.000  N
  N6       1.0000 0.27740  0.40020  0.16250  Biso   1.000  N
  N7       1.0000 0.22260  0.90020  0.83750  Biso   1.000  N
  N8       1.0000 0.72260  0.40020  0.83750  Biso   1.000  N
  N9       1.0000 0.12640  0.00000  0.15600  Biso   1.000  N
  N10      1.0000 0.62640  0.50000  0.15600  Biso   1.000  N
  N11      1.0000 0.87360  0.00000  0.84400  Biso   1.000  N
  N12      1.0000 0.37360  0.50000  0.84400  Biso   1.000  N
  N13      1.0000 0.32030  0.00000  0.19040  Biso   1.000  N
  N14      1.0000 0.82030  0.50000  0.19040  Biso   1.000  N
  N15      1.0000 0.67970  0.00000  0.80960  Biso   1.000  N
  N16      1.0000 0.17970  0.50000  0.80960  Biso   1.000  N
  C109     1.0000 0.46180  0.00000  0.43320  Biso   1.000  C
  C110     1.0000 0.96180  0.50000  0.43320  Biso   1.000  C
  C111     1.0000 0.53820  0.00000  0.56680  Biso   1.000  C
  C112     1.0000 0.03820  0.50000  0.56680  Biso   1.000  C
  C113     1.0000 0.44740  0.05250  0.29000  Biso   1.000  C
  C114     1.0000 0.94740  0.55250  0.29000  Biso   1.000  C
  C115     1.0000 0.55260  0.05250  0.71000  Biso   1.000  C
  C116     1.0000 0.05260  0.55250  0.71000  Biso   1.000  C
  C117     1.0000 0.55260  0.94750  0.71000  Biso   1.000  C
  C118     1.0000 0.05260  0.44750  0.71000  Biso   1.000  C
  C119     1.0000 0.44740  0.94750  0.29000  Biso   1.000  C
  C120     1.0000 0.94740  0.44750  0.29000  Biso   1.000  C
  C121     1.0000 0.40390  0.05090  0.45960  Biso   1.000  C
  C122     1.0000 0.90390  0.55090  0.45960  Biso   1.000  C
  C123     1.0000 0.59610  0.05090  0.54040  Biso   1.000  C
  C124     1.0000 0.09610  0.55090  0.54040  Biso   1.000  C
  C125     1.0000 0.59610  0.94910  0.54040  Biso   1.000  C
  C126     1.0000 0.09610  0.44910  0.54040  Biso   1.000  C
  C127     1.0000 0.40390  0.94910  0.45960  Biso   1.000  C
  C128     1.0000 0.90390  0.44910  0.45960  Biso   1.000  C
  C129     1.0000 0.37670  0.05410  0.17200  Biso   1.000  C
  C130     1.0000 0.87670  0.55410  0.17200  Biso   1.000  C
  C131     1.0000 0.62330  0.05410  0.82800  Biso   1.000  C
  C132     1.0000 0.12330  0.55410  0.82800  Biso   1.000  C
  C133     1.0000 0.62330  0.94590  0.82800  Biso   1.000  C
  C134     1.0000 0.12330  0.44590  0.82800  Biso   1.000  C
  C135     1.0000 0.37670  0.94590  0.17200  Biso   1.000  C
  C136     1.0000 0.87670  0.44590  0.17200  Biso   1.000  C
  C137     1.0000 0.33350  0.04970  0.33160  Biso   1.000  C
  C138     1.0000 0.83350  0.54970  0.33160  Biso   1.000  C
  C139     1.0000 0.66650  0.04970  0.66840  Biso   1.000  C
  C140     1.0000 0.16650  0.54970  0.66840  Biso   1.000  C
  C141     1.0000 0.66650  0.95030  0.66840  Biso   1.000  C
  C142     1.0000 0.16650  0.45030  0.66840  Biso   1.000  C
  C143     1.0000 0.33350  0.95030  0.33160  Biso   1.000  C
  C144     1.0000 0.83350  0.45030  0.33160  Biso   1.000  C
  O1       1.0000 0.42750  0.23090  0.93600  Biso   1.000  O
  O2       1.0000 0.92750  0.73090  0.93600  Biso   1.000  O
  O3       1.0000 0.57250  0.23090  0.06400  Biso   1.000  O
  O4       1.0000 0.07250  0.73090  0.06400  Biso   1.000  O
  O5       1.0000 0.57250  0.76910  0.06400  Biso   1.000  O
  O6       1.0000 0.07250  0.26910  0.06400  Biso   1.000  O
  O7       1.0000 0.42750  0.76910  0.93600  Biso   1.000  O
  O8       1.0000 0.92750  0.26910  0.93600  Biso   1.000  O
  N17      1.0000 0.51850  0.14390  0.95000  Biso   1.000  N
  N18      1.0000 0.01850  0.64390  0.95000  Biso   1.000  N
  N19      1.0000 0.48150  0.14390  0.05000  Biso   1.000  N
  N20      1.0000 0.98150  0.64390  0.05000  Biso   1.000  N
  N21      1.0000 0.48150  0.85610  0.05000  Biso   1.000  N
  N22      1.0000 0.98150  0.35610  0.05000  Biso   1.000  N
  N23      1.0000 0.51850  0.85610  0.95000  Biso   1.000  N
  N24      1.0000 0.01850  0.35610  0.95000  Biso   1.000  N
  O9       1.0000 0.49510  0.23420  0.19400  Biso   1.000  O
  O10      1.0000 0.99510  0.73420  0.19400  Biso   1.000  O
  O11      1.0000 0.50490  0.23420  0.80600  Biso   1.000  O
  O12      1.0000 0.00490  0.73420  0.80600  Biso   1.000  O
  O13      1.0000 0.50490  0.76580  0.80600  Biso   1.000  O
  O14      1.0000 0.00490  0.26580  0.80600  Biso   1.000  O
  O15      1.0000 0.49510  0.76580  0.19400  Biso   1.000  O
  O16      1.0000 0.99510  0.26580  0.19400  Biso   1.000  O
