data_image0
_cell_length_a       15.5804
_cell_length_b       25.5721
_cell_length_c       40.857
_cell_angle_alpha    90
_cell_angle_beta     96.397
_cell_angle_gamma    90

_symmetry_space_group_name_H-M    "P 1"
_symmetry_int_tables_number       1

loop_
  _symmetry_equiv_pos_as_xyz
  'x, y, z'

loop_
  _atom_site_label
  _atom_site_occupancy
  _atom_site_fract_x
  _atom_site_fract_y
  _atom_site_fract_z
  _atom_site_thermal_displace_type
  _atom_site_B_iso_or_equiv
  _atom_site_type_symbol
  Cu1      1.0000 0.24577  0.11813  0.17109  Biso   1.000  Cu
  Cu2      1.0000 0.74577  0.61813  0.17109  Biso   1.000  Cu
  Cu3      1.0000 0.75423  0.11813  0.32891  Biso   1.000  Cu
  Cu4      1.0000 0.25423  0.61813  0.32891  Biso   1.000  Cu
  Cu5      1.0000 0.75423  0.88187  0.82891  Biso   1.000  Cu
  Cu6      1.0000 0.25423  0.38187  0.82891  Biso   1.000  Cu
  Cu7      1.0000 0.24577  0.88187  0.67109  Biso   1.000  Cu
  Cu8      1.0000 0.74577  0.38187  0.67109  Biso   1.000  Cu
  Cu9      1.0000 0.56396  0.63594  0.08911  Biso   1.000  Cu
  Cu10     1.0000 0.06396  0.13594  0.08911  Biso   1.000  Cu
  Cu11     1.0000 0.43604  0.63594  0.41089  Biso   1.000  Cu
  Cu12     1.0000 0.93604  0.13594  0.41089  Biso   1.000  Cu
  Cu13     1.0000 0.43604  0.36406  0.91089  Biso   1.000  Cu
  Cu14     1.0000 0.93604  0.86406  0.91089  Biso   1.000  Cu
  Cu15     1.0000 0.56396  0.36406  0.58911  Biso   1.000  Cu
  Cu16     1.0000 0.06396  0.86406  0.58911  Biso   1.000  Cu
  Cu17     1.0000 0.06249  0.09474  0.15668  Biso   1.000  Cu
  Cu18     1.0000 0.56249  0.59474  0.15668  Biso   1.000  Cu
  Cu19     1.0000 0.93751  0.09474  0.34332  Biso   1.000  Cu
  Cu20     1.0000 0.43751  0.59474  0.34332  Biso   1.000  Cu
  Cu21     1.0000 0.93751  0.90526  0.84332  Biso   1.000  Cu
  Cu22     1.0000 0.43751  0.40526  0.84332  Biso   1.000  Cu
  Cu23     1.0000 0.06249  0.90526  0.65668  Biso   1.000  Cu
  Cu24     1.0000 0.56249  0.40526  0.65668  Biso   1.000  Cu
  Cu25     1.0000 0.17542  0.21428  0.13084  Biso   1.000  Cu
  Cu26     1.0000 0.67542  0.71428  0.13084  Biso   1.000  Cu
  Cu27     1.0000 0.82458  0.21428  0.36916  Biso   1.000  Cu
  Cu28     1.0000 0.32458  0.71428  0.36916  Biso   1.000  Cu
  Cu29     1.0000 0.82458  0.78572  0.86916  Biso   1.000  Cu
  Cu30     1.0000 0.32458  0.28572  0.86916  Biso   1.000  Cu
  Cu31     1.0000 0.17542  0.78572  0.63084  Biso   1.000  Cu
  Cu32     1.0000 0.67542  0.28572  0.63084  Biso   1.000  Cu
  Cu33     1.0000 0.25151  0.08821  0.09673  Biso   1.000  Cu
  Cu34     1.0000 0.75151  0.58821  0.09673  Biso   1.000  Cu
  Cu35     1.0000 0.74849  0.08821  0.40327  Biso   1.000  Cu
  Cu36     1.0000 0.24849  0.58821  0.40327  Biso   1.000  Cu
  Cu37     1.0000 0.74849  0.91179  0.90327  Biso   1.000  Cu
  Cu38     1.0000 0.24849  0.41179  0.90327  Biso   1.000  Cu
  Cu39     1.0000 0.25151  0.91179  0.59673  Biso   1.000  Cu
  Cu40     1.0000 0.75151  0.41179  0.59673  Biso   1.000  Cu
  Cu41     1.0000 0.50000  0.35106  0.25000  Biso   1.000  Cu
  Cu42     1.0000 0.00000  0.85106  0.25000  Biso   1.000  Cu
  Cu43     1.0000 0.50000  0.64894  0.75000  Biso   1.000  Cu
  Cu44     1.0000 0.00000  0.14894  0.75000  Biso   1.000  Cu
  Cu45     1.0000 0.70687  0.98831  0.16948  Biso   1.000  Cu
  Cu46     1.0000 0.20687  0.48831  0.16948  Biso   1.000  Cu
  Cu47     1.0000 0.29313  0.98831  0.33052  Biso   1.000  Cu
  Cu48     1.0000 0.79313  0.48831  0.33052  Biso   1.000  Cu
  Cu49     1.0000 0.29313  0.01169  0.83052  Biso   1.000  Cu
  Cu50     1.0000 0.79313  0.51169  0.83052  Biso   1.000  Cu
  Cu51     1.0000 0.70687  0.01169  0.66948  Biso   1.000  Cu
  Cu52     1.0000 0.20687  0.51169  0.66948  Biso   1.000  Cu
  Cu53     1.0000 0.37683  0.87771  0.99395  Biso   1.000  Cu
  Cu54     1.0000 0.87683  0.37771  0.99395  Biso   1.000  Cu
  Cu55     1.0000 0.62317  0.87771  0.50605  Biso   1.000  Cu
  Cu56     1.0000 0.12317  0.37771  0.50605  Biso   1.000  Cu
  Cu57     1.0000 0.62317  0.12229  0.00605  Biso   1.000  Cu
  Cu58     1.0000 0.12317  0.62229  0.00605  Biso   1.000  Cu
  Cu59     1.0000 0.37683  0.12229  0.49395  Biso   1.000  Cu
  Cu60     1.0000 0.87683  0.62229  0.49395  Biso   1.000  Cu
  Cu61     1.0000 0.66580  0.52851  0.93131  Biso   1.000  Cu
  Cu62     1.0000 0.16580  0.02851  0.93131  Biso   1.000  Cu
  Cu63     1.0000 0.33420  0.52851  0.56869  Biso   1.000  Cu
  Cu64     1.0000 0.83420  0.02851  0.56869  Biso   1.000  Cu
  Cu65     1.0000 0.33420  0.47149  0.06869  Biso   1.000  Cu
  Cu66     1.0000 0.83420  0.97149  0.06869  Biso   1.000  Cu
  Cu67     1.0000 0.66580  0.47149  0.43131  Biso   1.000  Cu
  Cu68     1.0000 0.16580  0.97149  0.43131  Biso   1.000  Cu
  N1       1.0000 0.39580  0.30330  0.23735  Biso   1.000  N
  N2       1.0000 0.89580  0.80330  0.23735  Biso   1.000  N
  N3       1.0000 0.60420  0.30330  0.26265  Biso   1.000  N
  N4       1.0000 0.10420  0.80330  0.26265  Biso   1.000  N
  N5       1.0000 0.60420  0.69670  0.76265  Biso   1.000  N
  N6       1.0000 0.10420  0.19670  0.76265  Biso   1.000  N
  N7       1.0000 0.39580  0.69670  0.73735  Biso   1.000  N
  N8       1.0000 0.89580  0.19670  0.73735  Biso   1.000  N
  N9       1.0000 0.17030  0.16180  0.19473  Biso   1.000  N
  N10      1.0000 0.67030  0.66180  0.19473  Biso   1.000  N
  N11      1.0000 0.82970  0.16180  0.30527  Biso   1.000  N
  N12      1.0000 0.32970  0.66180  0.30527  Biso   1.000  N
  N13      1.0000 0.82970  0.83820  0.80527  Biso   1.000  N
  N14      1.0000 0.32970  0.33820  0.80527  Biso   1.000  N
  N15      1.0000 0.17030  0.83820  0.69473  Biso   1.000  N
  N16      1.0000 0.67030  0.33820  0.69473  Biso   1.000  N
  N17      1.0000 0.08570  0.14690  0.18832  Biso   1.000  N
  N18      1.0000 0.58570  0.64690  0.18832  Biso   1.000  N
  N19      1.0000 0.91430  0.14690  0.31168  Biso   1.000  N
  N20      1.0000 0.41430  0.64690  0.31168  Biso   1.000  N
  N21      1.0000 0.91430  0.85310  0.81168  Biso   1.000  N
  N22      1.0000 0.41430  0.35310  0.81168  Biso   1.000  N
  N23      1.0000 0.08570  0.85310  0.68832  Biso   1.000  N
  N24      1.0000 0.58570  0.35310  0.68832  Biso   1.000  N
  N25      1.0000 0.76030  0.18430  0.18520  Biso   1.000  N
  N26      1.0000 0.26030  0.68430  0.18520  Biso   1.000  N
  N27      1.0000 0.23970  0.18430  0.31480  Biso   1.000  N
  N28      1.0000 0.73970  0.68430  0.31480  Biso   1.000  N
  N29      1.0000 0.23970  0.81570  0.81480  Biso   1.000  N
  N30      1.0000 0.73970  0.31570  0.81480  Biso   1.000  N
  N31      1.0000 0.76030  0.81570  0.68520  Biso   1.000  N
  N32      1.0000 0.26030  0.31570  0.68520  Biso   1.000  N
  N33      1.0000 0.60470  0.04390  0.16416  Biso   1.000  N
  N34      1.0000 0.10470  0.54390  0.16416  Biso   1.000  N
  N35      1.0000 0.39530  0.04390  0.33584  Biso   1.000  N
  N36      1.0000 0.89530  0.54390  0.33584  Biso   1.000  N
  N37      1.0000 0.39530  0.95610  0.83584  Biso   1.000  N
  N38      1.0000 0.89530  0.45610  0.83584  Biso   1.000  N
  N39      1.0000 0.60470  0.95610  0.66416  Biso   1.000  N
  N40      1.0000 0.10470  0.45610  0.66416  Biso   1.000  N
  N41      1.0000 0.33150  0.16030  0.14605  Biso   1.000  N
  N42      1.0000 0.83150  0.66030  0.14605  Biso   1.000  N
  N43      1.0000 0.66850  0.16030  0.35395  Biso   1.000  N
  N44      1.0000 0.16850  0.66030  0.35395  Biso   1.000  N
  N45      1.0000 0.66850  0.83970  0.85395  Biso   1.000  N
  N46      1.0000 0.16850  0.33970  0.85395  Biso   1.000  N
  N47      1.0000 0.33150  0.83970  0.64605  Biso   1.000  N
  N48      1.0000 0.83150  0.33970  0.64605  Biso   1.000  N
  N49      1.0000 0.29460  0.20590  0.13364  Biso   1.000  N
  N50      1.0000 0.79460  0.70590  0.13364  Biso   1.000  N
  N51      1.0000 0.70540  0.20590  0.36636  Biso   1.000  N
  N52      1.0000 0.20540  0.70590  0.36636  Biso   1.000  N
  N53      1.0000 0.70540  0.79410  0.86636  Biso   1.000  N
  N54      1.0000 0.20540  0.29410  0.86636  Biso   1.000  N
  N55      1.0000 0.29460  0.79410  0.63364  Biso   1.000  N
  N56      1.0000 0.79460  0.29410  0.63364  Biso   1.000  N
  N57      1.0000 0.32550  0.38890  0.08180  Biso   1.000  N
  N58      1.0000 0.82550  0.88890  0.08180  Biso   1.000  N
  N59      1.0000 0.67450  0.38890  0.41820  Biso   1.000  N
  N60      1.0000 0.17450  0.88890  0.41820  Biso   1.000  N
  N61      1.0000 0.67450  0.61110  0.91820  Biso   1.000  N
  N62      1.0000 0.17450  0.11110  0.91820  Biso   1.000  N
  N63      1.0000 0.32550  0.61110  0.58180  Biso   1.000  N
  N64      1.0000 0.82550  0.11110  0.58180  Biso   1.000  N
  N65      1.0000 0.26490  0.98620  0.28073  Biso   1.000  N
  N66      1.0000 0.76490  0.48620  0.28073  Biso   1.000  N
  N67      1.0000 0.73510  0.98620  0.21927  Biso   1.000  N
  N68      1.0000 0.23510  0.48620  0.21927  Biso   1.000  N
  N69      1.0000 0.73510  0.01380  0.71927  Biso   1.000  N
  N70      1.0000 0.23510  0.51380  0.71927  Biso   1.000  N
  N71      1.0000 0.26490  0.01380  0.78073  Biso   1.000  N
  N72      1.0000 0.76490  0.51380  0.78073  Biso   1.000  N
  N73      1.0000 0.25970  0.04480  0.15988  Biso   1.000  N
  N74      1.0000 0.75970  0.54480  0.15988  Biso   1.000  N
  N75      1.0000 0.74030  0.04480  0.34012  Biso   1.000  N
  N76      1.0000 0.24030  0.54480  0.34012  Biso   1.000  N
  N77      1.0000 0.74030  0.95520  0.84012  Biso   1.000  N
  N78      1.0000 0.24030  0.45520  0.84012  Biso   1.000  N
  N79      1.0000 0.25970  0.95520  0.65988  Biso   1.000  N
  N80      1.0000 0.75970  0.45520  0.65988  Biso   1.000  N
  N81      1.0000 0.27450  0.03500  0.12803  Biso   1.000  N
  N82      1.0000 0.77450  0.53500  0.12803  Biso   1.000  N
  N83      1.0000 0.72550  0.03500  0.37197  Biso   1.000  N
  N84      1.0000 0.22550  0.53500  0.37197  Biso   1.000  N
  N85      1.0000 0.72550  0.96500  0.87197  Biso   1.000  N
  N86      1.0000 0.22550  0.46500  0.87197  Biso   1.000  N
  N87      1.0000 0.27450  0.96500  0.62803  Biso   1.000  N
  N88      1.0000 0.77450  0.46500  0.62803  Biso   1.000  N
  N89      1.0000 0.35000  0.91310  0.03568  Biso   1.000  N
  N90      1.0000 0.85000  0.41310  0.03568  Biso   1.000  N
  N91      1.0000 0.65000  0.91310  0.46432  Biso   1.000  N
  N92      1.0000 0.15000  0.41310  0.46432  Biso   1.000  N
  N93      1.0000 0.65000  0.08690  0.96432  Biso   1.000  N
  N94      1.0000 0.15000  0.58690  0.96432  Biso   1.000  N
  N95      1.0000 0.35000  0.08690  0.53568  Biso   1.000  N
  N96      1.0000 0.85000  0.58690  0.53568  Biso   1.000  N
  N97      1.0000 0.63430  0.52490  0.97572  Biso   1.000  N
  N98      1.0000 0.13430  0.02490  0.97572  Biso   1.000  N
  N99      1.0000 0.36570  0.52490  0.52428  Biso   1.000  N
  N100     1.0000 0.86570  0.02490  0.52428  Biso   1.000  N
  N101     1.0000 0.36570  0.47510  0.02428  Biso   1.000  N
  N102     1.0000 0.86570  0.97510  0.02428  Biso   1.000  N
  N103     1.0000 0.63430  0.47510  0.47572  Biso   1.000  N
  N104     1.0000 0.13430  0.97510  0.47572  Biso   1.000  N
  N105     1.0000 0.55720  0.56040  0.09322  Biso   1.000  N
  N106     1.0000 0.05720  0.06040  0.09322  Biso   1.000  N
  N107     1.0000 0.44280  0.56040  0.40678  Biso   1.000  N
  N108     1.0000 0.94280  0.06040  0.40678  Biso   1.000  N
  N109     1.0000 0.44280  0.43960  0.90678  Biso   1.000  N
  N110     1.0000 0.94280  0.93960  0.90678  Biso   1.000  N
  N111     1.0000 0.55720  0.43960  0.59322  Biso   1.000  N
  N112     1.0000 0.05720  0.93960  0.59322  Biso   1.000  N
  N113     1.0000 0.54570  0.54340  0.12419  Biso   1.000  N
  N114     1.0000 0.04570  0.04340  0.12419  Biso   1.000  N
  N115     1.0000 0.45430  0.54340  0.37581  Biso   1.000  N
  N116     1.0000 0.95430  0.04340  0.37581  Biso   1.000  N
  N117     1.0000 0.45430  0.45660  0.87581  Biso   1.000  N
  N118     1.0000 0.95430  0.95660  0.87581  Biso   1.000  N
  N119     1.0000 0.54570  0.45660  0.62419  Biso   1.000  N
  N120     1.0000 0.04570  0.95660  0.62419  Biso   1.000  N
  N121     1.0000 0.52150  0.39850  0.21063  Biso   1.000  N
  N122     1.0000 0.02150  0.89850  0.21063  Biso   1.000  N
  N123     1.0000 0.47850  0.39850  0.28937  Biso   1.000  N
  N124     1.0000 0.97850  0.89850  0.28937  Biso   1.000  N
  N125     1.0000 0.47850  0.60150  0.78937  Biso   1.000  N
  N126     1.0000 0.97850  0.10150  0.78937  Biso   1.000  N
  N127     1.0000 0.52150  0.60150  0.71063  Biso   1.000  N
  N128     1.0000 0.02150  0.10150  0.71063  Biso   1.000  N
  N129     1.0000 0.21700  0.64510  0.04062  Biso   1.000  N
  N130     1.0000 0.71700  0.14510  0.04062  Biso   1.000  N
  N131     1.0000 0.78300  0.64510  0.45938  Biso   1.000  N
  N132     1.0000 0.28300  0.14510  0.45938  Biso   1.000  N
  N133     1.0000 0.78300  0.35490  0.95938  Biso   1.000  N
  N134     1.0000 0.28300  0.85490  0.95938  Biso   1.000  N
  N135     1.0000 0.21700  0.35490  0.54062  Biso   1.000  N
  N136     1.0000 0.71700  0.85490  0.54062  Biso   1.000  N
  N137     1.0000 0.50390  0.69350  0.10867  Biso   1.000  N
  N138     1.0000 0.00390  0.19350  0.10867  Biso   1.000  N
  N139     1.0000 0.49610  0.69350  0.39133  Biso   1.000  N
  N140     1.0000 0.99610  0.19350  0.39133  Biso   1.000  N
  N141     1.0000 0.49610  0.30650  0.89133  Biso   1.000  N
  N142     1.0000 0.99610  0.80650  0.89133  Biso   1.000  N
  N143     1.0000 0.50390  0.30650  0.60867  Biso   1.000  N
  N144     1.0000 0.00390  0.80650  0.60867  Biso   1.000  N
  N145     1.0000 0.55820  0.72990  0.12484  Biso   1.000  N
  N146     1.0000 0.05820  0.22990  0.12484  Biso   1.000  N
  N147     1.0000 0.44180  0.72990  0.37516  Biso   1.000  N
  N148     1.0000 0.94180  0.22990  0.37516  Biso   1.000  N
  N149     1.0000 0.44180  0.27010  0.87516  Biso   1.000  N
  N150     1.0000 0.94180  0.77010  0.87516  Biso   1.000  N
  N151     1.0000 0.55820  0.27010  0.62484  Biso   1.000  N
  N152     1.0000 0.05820  0.77010  0.62484  Biso   1.000  N
  N153     1.0000 0.63440  0.91760  0.15989  Biso   1.000  N
  N154     1.0000 0.13440  0.41760  0.15989  Biso   1.000  N
  N155     1.0000 0.36560  0.91760  0.34011  Biso   1.000  N
  N156     1.0000 0.86560  0.41760  0.34011  Biso   1.000  N
  N157     1.0000 0.36560  0.08240  0.84011  Biso   1.000  N
  N158     1.0000 0.86560  0.58240  0.84011  Biso   1.000  N
  N159     1.0000 0.63440  0.08240  0.65989  Biso   1.000  N
  N160     1.0000 0.13440  0.58240  0.65989  Biso   1.000  N
  N161     1.0000 0.45630  0.80980  0.00634  Biso   1.000  N
  N162     1.0000 0.95630  0.30980  0.00634  Biso   1.000  N
  N163     1.0000 0.54370  0.80980  0.49366  Biso   1.000  N
  N164     1.0000 0.04370  0.30980  0.49366  Biso   1.000  N
  N165     1.0000 0.54370  0.19020  0.99366  Biso   1.000  N
  N166     1.0000 0.04370  0.69020  0.99366  Biso   1.000  N
  N167     1.0000 0.45630  0.19020  0.50634  Biso   1.000  N
  N168     1.0000 0.95630  0.69020  0.50634  Biso   1.000  N
  N169     1.0000 0.65410  0.66560  0.06072  Biso   1.000  N
  N170     1.0000 0.15410  0.16560  0.06072  Biso   1.000  N
  N171     1.0000 0.34590  0.66560  0.43928  Biso   1.000  N
  N172     1.0000 0.84590  0.16560  0.43928  Biso   1.000  N
  N173     1.0000 0.34590  0.33440  0.93928  Biso   1.000  N
  N174     1.0000 0.84590  0.83440  0.93928  Biso   1.000  N
  N175     1.0000 0.65410  0.33440  0.56072  Biso   1.000  N
  N176     1.0000 0.15410  0.83440  0.56072  Biso   1.000  N
  N177     1.0000 0.72760  0.63600  0.06235  Biso   1.000  N
  N178     1.0000 0.22760  0.13600  0.06235  Biso   1.000  N
  N179     1.0000 0.27240  0.63600  0.43765  Biso   1.000  N
  N180     1.0000 0.77240  0.13600  0.43765  Biso   1.000  N
  N181     1.0000 0.27240  0.36400  0.93765  Biso   1.000  N
  N182     1.0000 0.77240  0.86400  0.93765  Biso   1.000  N
  N183     1.0000 0.72760  0.36400  0.56235  Biso   1.000  N
  N184     1.0000 0.22760  0.86400  0.56235  Biso   1.000  N
  N185     1.0000 0.01170  0.57970  0.02030  Biso   1.000  N
  N186     1.0000 0.51170  0.07970  0.02030  Biso   1.000  N
  N187     1.0000 0.98830  0.57970  0.47970  Biso   1.000  N
  N188     1.0000 0.48830  0.07970  0.47970  Biso   1.000  N
  N189     1.0000 0.98830  0.42030  0.97970  Biso   1.000  N
  N190     1.0000 0.48830  0.92030  0.97970  Biso   1.000  N
  N191     1.0000 0.01170  0.42030  0.52030  Biso   1.000  N
  N192     1.0000 0.51170  0.92030  0.52030  Biso   1.000  N
  C1       1.0000 0.33280  0.22220  0.21710  Biso   1.000  C
  C2       1.0000 0.83280  0.72220  0.21710  Biso   1.000  C
  C3       1.0000 0.66720  0.22220  0.28290  Biso   1.000  C
  C4       1.0000 0.16720  0.72220  0.28290  Biso   1.000  C
  C5       1.0000 0.66720  0.77780  0.78290  Biso   1.000  C
  C6       1.0000 0.16720  0.27780  0.78290  Biso   1.000  C
  C7       1.0000 0.33280  0.77780  0.71710  Biso   1.000  C
  C8       1.0000 0.83280  0.27780  0.71710  Biso   1.000  C
  H1       1.0000 0.34160  0.18880  0.20910  Biso   1.000  H
  H2       1.0000 0.84160  0.68880  0.20910  Biso   1.000  H
  H3       1.0000 0.65840  0.18880  0.29090  Biso   1.000  H
  H4       1.0000 0.15840  0.68880  0.29090  Biso   1.000  H
  H5       1.0000 0.65840  0.81120  0.79090  Biso   1.000  H
  H6       1.0000 0.15840  0.31120  0.79090  Biso   1.000  H
  H7       1.0000 0.34160  0.81120  0.70910  Biso   1.000  H
  H8       1.0000 0.84160  0.31120  0.70910  Biso   1.000  H
  C9       1.0000 0.40230  0.25520  0.22490  Biso   1.000  C
  C10      1.0000 0.90230  0.75520  0.22490  Biso   1.000  C
  C11      1.0000 0.59770  0.25520  0.27510  Biso   1.000  C
  C12      1.0000 0.09770  0.75520  0.27510  Biso   1.000  C
  C13      1.0000 0.59770  0.74480  0.77510  Biso   1.000  C
  C14      1.0000 0.09770  0.24480  0.77510  Biso   1.000  C
  C15      1.0000 0.40230  0.74480  0.72490  Biso   1.000  C
  C16      1.0000 0.90230  0.24480  0.72490  Biso   1.000  C
  H9       1.0000 0.45690  0.24330  0.22140  Biso   1.000  H
  H10      1.0000 0.95690  0.74330  0.22140  Biso   1.000  H
  H11      1.0000 0.54310  0.24330  0.27860  Biso   1.000  H
  H12      1.0000 0.04310  0.74330  0.27860  Biso   1.000  H
  H13      1.0000 0.54310  0.75670  0.77860  Biso   1.000  H
  H14      1.0000 0.04310  0.25670  0.77860  Biso   1.000  H
  H15      1.0000 0.45690  0.75670  0.72140  Biso   1.000  H
  H16      1.0000 0.95690  0.25670  0.72140  Biso   1.000  H
  C17      1.0000 0.31610  0.31780  0.24220  Biso   1.000  C
  C18      1.0000 0.81610  0.81780  0.24220  Biso   1.000  C
  C19      1.0000 0.68390  0.31780  0.25780  Biso   1.000  C
  C20      1.0000 0.18390  0.81780  0.25780  Biso   1.000  C
  C21      1.0000 0.68390  0.68220  0.75780  Biso   1.000  C
  C22      1.0000 0.18390  0.18220  0.75780  Biso   1.000  C
  C23      1.0000 0.31610  0.68220  0.74220  Biso   1.000  C
  C24      1.0000 0.81610  0.18220  0.74220  Biso   1.000  C
  H17      1.0000 0.30910  0.35050  0.25150  Biso   1.000  H
  H18      1.0000 0.80910  0.85050  0.25150  Biso   1.000  H
  H19      1.0000 0.69090  0.35050  0.24850  Biso   1.000  H
  H20      1.0000 0.19090  0.85050  0.24850  Biso   1.000  H
  H21      1.0000 0.69090  0.64950  0.74850  Biso   1.000  H
  H22      1.0000 0.19090  0.14950  0.74850  Biso   1.000  H
  H23      1.0000 0.30910  0.64950  0.75150  Biso   1.000  H
  H24      1.0000 0.80910  0.14950  0.75150  Biso   1.000  H
  C25      1.0000 0.24320  0.28760  0.23450  Biso   1.000  C
  C26      1.0000 0.74320  0.78760  0.23450  Biso   1.000  C
  C27      1.0000 0.75680  0.28760  0.26550  Biso   1.000  C
  C28      1.0000 0.25680  0.78760  0.26550  Biso   1.000  C
  C29      1.0000 0.75680  0.71240  0.76550  Biso   1.000  C
  C30      1.0000 0.25680  0.21240  0.76550  Biso   1.000  C
  C31      1.0000 0.24320  0.71240  0.73450  Biso   1.000  C
  C32      1.0000 0.74320  0.21240  0.73450  Biso   1.000  C
  H25      1.0000 0.18920  0.30020  0.23830  Biso   1.000  H
  H26      1.0000 0.68920  0.80020  0.23830  Biso   1.000  H
  H27      1.0000 0.81080  0.30020  0.26170  Biso   1.000  H
  H28      1.0000 0.31080  0.80020  0.26170  Biso   1.000  H
  H29      1.0000 0.81080  0.69980  0.76170  Biso   1.000  H
  H30      1.0000 0.31080  0.19980  0.76170  Biso   1.000  H
  H31      1.0000 0.18920  0.69980  0.73830  Biso   1.000  H
  H32      1.0000 0.68920  0.19980  0.73830  Biso   1.000  H
  C33      1.0000 0.25120  0.23860  0.22104  Biso   1.000  C
  C34      1.0000 0.75120  0.73860  0.22104  Biso   1.000  C
  C35      1.0000 0.74880  0.23860  0.27896  Biso   1.000  C
  C36      1.0000 0.24880  0.73860  0.27896  Biso   1.000  C
  C37      1.0000 0.74880  0.76140  0.77896  Biso   1.000  C
  C38      1.0000 0.24880  0.26140  0.77896  Biso   1.000  C
  C39      1.0000 0.25120  0.76140  0.72104  Biso   1.000  C
  C40      1.0000 0.75120  0.26140  0.72104  Biso   1.000  C
  C41      1.0000 0.17200  0.20790  0.21120  Biso   1.000  C
  C42      1.0000 0.67200  0.70790  0.21120  Biso   1.000  C
  C43      1.0000 0.82800  0.20790  0.28880  Biso   1.000  C
  C44      1.0000 0.32800  0.70790  0.28880  Biso   1.000  C
  C45      1.0000 0.82800  0.79210  0.78880  Biso   1.000  C
  C46      1.0000 0.32800  0.29210  0.78880  Biso   1.000  C
  C47      1.0000 0.17200  0.79210  0.71120  Biso   1.000  C
  C48      1.0000 0.67200  0.29210  0.71120  Biso   1.000  C
  C49      1.0000 0.08770  0.22260  0.21510  Biso   1.000  C
  C50      1.0000 0.58770  0.72260  0.21510  Biso   1.000  C
  C51      1.0000 0.91230  0.22260  0.28490  Biso   1.000  C
  C52      1.0000 0.41230  0.72260  0.28490  Biso   1.000  C
  C53      1.0000 0.91230  0.77740  0.78490  Biso   1.000  C
  C54      1.0000 0.41230  0.27740  0.78490  Biso   1.000  C
  C55      1.0000 0.08770  0.77740  0.71510  Biso   1.000  C
  C56      1.0000 0.58770  0.27740  0.71510  Biso   1.000  C
  H33      1.0000 0.07030  0.25230  0.22570  Biso   1.000  H
  H34      1.0000 0.57030  0.75230  0.22570  Biso   1.000  H
  H35      1.0000 0.92970  0.25230  0.27430  Biso   1.000  H
  H36      1.0000 0.42970  0.75230  0.27430  Biso   1.000  H
  H37      1.0000 0.92970  0.74770  0.77430  Biso   1.000  H
  H38      1.0000 0.42970  0.24770  0.77430  Biso   1.000  H
  H39      1.0000 0.07030  0.74770  0.72570  Biso   1.000  H
  H40      1.0000 0.57030  0.24770  0.72570  Biso   1.000  H
  C57      1.0000 0.03510  0.18400  0.19994  Biso   1.000  C
  C58      1.0000 0.53510  0.68400  0.19994  Biso   1.000  C
  C59      1.0000 0.96490  0.18400  0.30006  Biso   1.000  C
  C60      1.0000 0.46490  0.68400  0.30006  Biso   1.000  C
  C61      1.0000 0.96490  0.81600  0.80006  Biso   1.000  C
  C62      1.0000 0.46490  0.31600  0.80006  Biso   1.000  C
  C63      1.0000 0.03510  0.81600  0.69994  Biso   1.000  C
  C64      1.0000 0.53510  0.31600  0.69994  Biso   1.000  C
  C65      1.0000 0.94100  0.18210  0.19500  Biso   1.000  C
  C66      1.0000 0.44100  0.68210  0.19500  Biso   1.000  C
  C67      1.0000 0.05900  0.18210  0.30500  Biso   1.000  C
  C68      1.0000 0.55900  0.68210  0.30500  Biso   1.000  C
  C69      1.0000 0.05900  0.81790  0.80500  Biso   1.000  C
  C70      1.0000 0.55900  0.31790  0.80500  Biso   1.000  C
  C71      1.0000 0.94100  0.81790  0.69500  Biso   1.000  C
  C72      1.0000 0.44100  0.31790  0.69500  Biso   1.000  C
  C73      1.0000 0.89440  0.22810  0.19580  Biso   1.000  C
  C74      1.0000 0.39440  0.72810  0.19580  Biso   1.000  C
  C75      1.0000 0.10560  0.22810  0.30420  Biso   1.000  C
  C76      1.0000 0.60560  0.72810  0.30420  Biso   1.000  C
  C77      1.0000 0.10560  0.77190  0.80420  Biso   1.000  C
  C78      1.0000 0.60560  0.27190  0.80420  Biso   1.000  C
  C79      1.0000 0.89440  0.77190  0.69580  Biso   1.000  C
  C80      1.0000 0.39440  0.27190  0.69580  Biso   1.000  C
  H41      1.0000 0.92380  0.25940  0.20030  Biso   1.000  H
  H42      1.0000 0.42380  0.75940  0.20030  Biso   1.000  H
  H43      1.0000 0.07620  0.25940  0.29970  Biso   1.000  H
  H44      1.0000 0.57620  0.75940  0.29970  Biso   1.000  H
  H45      1.0000 0.07620  0.74060  0.79970  Biso   1.000  H
  H46      1.0000 0.57620  0.24060  0.79970  Biso   1.000  H
  H47      1.0000 0.92380  0.74060  0.70030  Biso   1.000  H
  H48      1.0000 0.42380  0.24060  0.70030  Biso   1.000  H
  C81      1.0000 0.80700  0.22870  0.19030  Biso   1.000  C
  C82      1.0000 0.30700  0.72870  0.19030  Biso   1.000  C
  C83      1.0000 0.19300  0.22870  0.30970  Biso   1.000  C
  C84      1.0000 0.69300  0.72870  0.30970  Biso   1.000  C
  C85      1.0000 0.19300  0.77130  0.80970  Biso   1.000  C
  C86      1.0000 0.69300  0.27130  0.80970  Biso   1.000  C
  C87      1.0000 0.80700  0.77130  0.69030  Biso   1.000  C
  C88      1.0000 0.30700  0.27130  0.69030  Biso   1.000  C
  H49      1.0000 0.77830  0.26060  0.19000  Biso   1.000  H
  H50      1.0000 0.27830  0.76060  0.19000  Biso   1.000  H
  H51      1.0000 0.22170  0.26060  0.31000  Biso   1.000  H
  H52      1.0000 0.72170  0.76060  0.31000  Biso   1.000  H
  H53      1.0000 0.22170  0.73940  0.81000  Biso   1.000  H
  H54      1.0000 0.72170  0.23940  0.81000  Biso   1.000  H
  H55      1.0000 0.77830  0.73940  0.69000  Biso   1.000  H
  H56      1.0000 0.27830  0.23940  0.69000  Biso   1.000  H
  C89      1.0000 0.80410  0.14130  0.18360  Biso   1.000  C
  C90      1.0000 0.30410  0.64130  0.18360  Biso   1.000  C
  C91      1.0000 0.19590  0.14130  0.31640  Biso   1.000  C
  C92      1.0000 0.69590  0.64130  0.31640  Biso   1.000  C
  C93      1.0000 0.19590  0.85870  0.81640  Biso   1.000  C
  C94      1.0000 0.69590  0.35870  0.81640  Biso   1.000  C
  C95      1.0000 0.80410  0.85870  0.68360  Biso   1.000  C
  C96      1.0000 0.30410  0.35870  0.68360  Biso   1.000  C
  H57      1.0000 0.77400  0.11030  0.17900  Biso   1.000  H
  H58      1.0000 0.27400  0.61030  0.17900  Biso   1.000  H
  H59      1.0000 0.22600  0.11030  0.32100  Biso   1.000  H
  H60      1.0000 0.72600  0.61030  0.32100  Biso   1.000  H
  H61      1.0000 0.22600  0.88970  0.82100  Biso   1.000  H
  H62      1.0000 0.72600  0.38970  0.82100  Biso   1.000  H
  H63      1.0000 0.77400  0.88970  0.67900  Biso   1.000  H
  H64      1.0000 0.27400  0.38970  0.67900  Biso   1.000  H
  C97      1.0000 0.89560  0.13940  0.18830  Biso   1.000  C
  C98      1.0000 0.39560  0.63940  0.18830  Biso   1.000  C
  C99      1.0000 0.10440  0.13940  0.31170  Biso   1.000  C
  C100     1.0000 0.60440  0.63940  0.31170  Biso   1.000  C
  C101     1.0000 0.10440  0.86060  0.81170  Biso   1.000  C
  C102     1.0000 0.60440  0.36060  0.81170  Biso   1.000  C
  C103     1.0000 0.89560  0.86060  0.68830  Biso   1.000  C
  C104     1.0000 0.39560  0.36060  0.68830  Biso   1.000  C
  H65      1.0000 0.92370  0.10760  0.18660  Biso   1.000  H
  H66      1.0000 0.42370  0.60760  0.18660  Biso   1.000  H
  H67      1.0000 0.07630  0.10760  0.31340  Biso   1.000  H
  H68      1.0000 0.57630  0.60760  0.31340  Biso   1.000  H
  H69      1.0000 0.07630  0.89240  0.81340  Biso   1.000  H
  H70      1.0000 0.57630  0.39240  0.81340  Biso   1.000  H
  H71      1.0000 0.92370  0.89240  0.68660  Biso   1.000  H
  H72      1.0000 0.42370  0.39240  0.68660  Biso   1.000  H
  C105     1.0000 0.46840  0.08130  0.17290  Biso   1.000  C
  C106     1.0000 0.96840  0.58130  0.17290  Biso   1.000  C
  C107     1.0000 0.53160  0.08130  0.32710  Biso   1.000  C
  C108     1.0000 0.03160  0.58130  0.32710  Biso   1.000  C
  C109     1.0000 0.53160  0.91870  0.82710  Biso   1.000  C
  C110     1.0000 0.03160  0.41870  0.82710  Biso   1.000  C
  C111     1.0000 0.46840  0.91870  0.67290  Biso   1.000  C
  C112     1.0000 0.96840  0.41870  0.67290  Biso   1.000  C
  H73      1.0000 0.41860  0.07880  0.18340  Biso   1.000  H
  H74      1.0000 0.91860  0.57880  0.18340  Biso   1.000  H
  H75      1.0000 0.58140  0.07880  0.31660  Biso   1.000  H
  H76      1.0000 0.08140  0.57880  0.31660  Biso   1.000  H
  H77      1.0000 0.58140  0.92120  0.81660  Biso   1.000  H
  H78      1.0000 0.08140  0.42120  0.81660  Biso   1.000  H
  H79      1.0000 0.41860  0.92120  0.68340  Biso   1.000  H
  H80      1.0000 0.91860  0.42120  0.68340  Biso   1.000  H
  C113     1.0000 0.53370  0.04390  0.17860  Biso   1.000  C
  C114     1.0000 0.03370  0.54390  0.17860  Biso   1.000  C
  C115     1.0000 0.46630  0.04390  0.32140  Biso   1.000  C
  C116     1.0000 0.96630  0.54390  0.32140  Biso   1.000  C
  C117     1.0000 0.46630  0.95610  0.82140  Biso   1.000  C
  C118     1.0000 0.96630  0.45610  0.82140  Biso   1.000  C
  C119     1.0000 0.53370  0.95610  0.67860  Biso   1.000  C
  C120     1.0000 0.03370  0.45610  0.67860  Biso   1.000  C
  H81      1.0000 0.52640  0.01740  0.19370  Biso   1.000  H
  H82      1.0000 0.02640  0.51740  0.19370  Biso   1.000  H
  H83      1.0000 0.47360  0.01740  0.30630  Biso   1.000  H
  H84      1.0000 0.97360  0.51740  0.30630  Biso   1.000  H
  H85      1.0000 0.47360  0.98260  0.80630  Biso   1.000  H
  H86      1.0000 0.97360  0.48260  0.80630  Biso   1.000  H
  H87      1.0000 0.52640  0.98260  0.69370  Biso   1.000  H
  H88      1.0000 0.02640  0.48260  0.69370  Biso   1.000  H
  C121     1.0000 0.61490  0.08270  0.14290  Biso   1.000  C
  C122     1.0000 0.11490  0.58270  0.14290  Biso   1.000  C
  C123     1.0000 0.38510  0.08270  0.35710  Biso   1.000  C
  C124     1.0000 0.88510  0.58270  0.35710  Biso   1.000  C
  C125     1.0000 0.38510  0.91730  0.85710  Biso   1.000  C
  C126     1.0000 0.88510  0.41730  0.85710  Biso   1.000  C
  C127     1.0000 0.61490  0.91730  0.64290  Biso   1.000  C
  C128     1.0000 0.11490  0.41730  0.64290  Biso   1.000  C
  H89      1.0000 0.66400  0.08290  0.13190  Biso   1.000  H
  H90      1.0000 0.16400  0.58290  0.13190  Biso   1.000  H
  H91      1.0000 0.33600  0.08290  0.36810  Biso   1.000  H
  H92      1.0000 0.83600  0.58290  0.36810  Biso   1.000  H
  H93      1.0000 0.33600  0.91710  0.86810  Biso   1.000  H
  H94      1.0000 0.83600  0.41710  0.86810  Biso   1.000  H
  H95      1.0000 0.66400  0.91710  0.63190  Biso   1.000  H
  H96      1.0000 0.16400  0.41710  0.63190  Biso   1.000  H
  C129     1.0000 0.55480  0.12260  0.13670  Biso   1.000  C
  C130     1.0000 0.05480  0.62260  0.13670  Biso   1.000  C
  C131     1.0000 0.44520  0.12260  0.36330  Biso   1.000  C
  C132     1.0000 0.94520  0.62260  0.36330  Biso   1.000  C
  C133     1.0000 0.44520  0.87740  0.86330  Biso   1.000  C
  C134     1.0000 0.94520  0.37740  0.86330  Biso   1.000  C
  C135     1.0000 0.55480  0.87740  0.63670  Biso   1.000  C
  C136     1.0000 0.05480  0.37740  0.63670  Biso   1.000  C
  H97      1.0000 0.56560  0.14990  0.12270  Biso   1.000  H
  H98      1.0000 0.06560  0.64990  0.12270  Biso   1.000  H
  H99      1.0000 0.43440  0.14990  0.37730  Biso   1.000  H
  H100     1.0000 0.93440  0.64990  0.37730  Biso   1.000  H
  H101     1.0000 0.43440  0.85010  0.87730  Biso   1.000  H
  H102     1.0000 0.93440  0.35010  0.87730  Biso   1.000  H
  H103     1.0000 0.56560  0.85010  0.62270  Biso   1.000  H
  H104     1.0000 0.06560  0.35010  0.62270  Biso   1.000  H
  C137     1.0000 0.47870  0.12190  0.15130  Biso   1.000  C
  C138     1.0000 0.97870  0.62190  0.15130  Biso   1.000  C
  C139     1.0000 0.52130  0.12190  0.34870  Biso   1.000  C
  C140     1.0000 0.02130  0.62190  0.34870  Biso   1.000  C
  C141     1.0000 0.52130  0.87810  0.84870  Biso   1.000  C
  C142     1.0000 0.02130  0.37810  0.84870  Biso   1.000  C
  C143     1.0000 0.47870  0.87810  0.65130  Biso   1.000  C
  C144     1.0000 0.97870  0.37810  0.65130  Biso   1.000  C
  C145     1.0000 0.41690  0.16390  0.14340  Biso   1.000  C
  C146     1.0000 0.91690  0.66390  0.14340  Biso   1.000  C
  C147     1.0000 0.58310  0.16390  0.35660  Biso   1.000  C
  C148     1.0000 0.08310  0.66390  0.35660  Biso   1.000  C
  C149     1.0000 0.58310  0.83610  0.85660  Biso   1.000  C
  C150     1.0000 0.08310  0.33610  0.85660  Biso   1.000  C
  C151     1.0000 0.41690  0.83610  0.64340  Biso   1.000  C
  C152     1.0000 0.91690  0.33610  0.64340  Biso   1.000  C
  C153     1.0000 0.43460  0.21130  0.13000  Biso   1.000  C
  C154     1.0000 0.93460  0.71130  0.13000  Biso   1.000  C
  C155     1.0000 0.56540  0.21130  0.37000  Biso   1.000  C
  C156     1.0000 0.06540  0.71130  0.37000  Biso   1.000  C
  C157     1.0000 0.56540  0.78870  0.87000  Biso   1.000  C
  C158     1.0000 0.06540  0.28870  0.87000  Biso   1.000  C
  C159     1.0000 0.43460  0.78870  0.63000  Biso   1.000  C
  C160     1.0000 0.93460  0.28870  0.63000  Biso   1.000  C
  H105     1.0000 0.48830  0.22390  0.12580  Biso   1.000  H
  H106     1.0000 0.98830  0.72390  0.12580  Biso   1.000  H
  H107     1.0000 0.51170  0.22390  0.37420  Biso   1.000  H
  H108     1.0000 0.01170  0.72390  0.37420  Biso   1.000  H
  H109     1.0000 0.51170  0.77610  0.87420  Biso   1.000  H
  H110     1.0000 0.01170  0.27610  0.87420  Biso   1.000  H
  H111     1.0000 0.48830  0.77610  0.62580  Biso   1.000  H
  H112     1.0000 0.98830  0.27610  0.62580  Biso   1.000  H
  C161     1.0000 0.35670  0.23650  0.12410  Biso   1.000  C
  C162     1.0000 0.85670  0.73650  0.12410  Biso   1.000  C
  C163     1.0000 0.64330  0.23650  0.37590  Biso   1.000  C
  C164     1.0000 0.14330  0.73650  0.37590  Biso   1.000  C
  C165     1.0000 0.64330  0.76350  0.87590  Biso   1.000  C
  C166     1.0000 0.14330  0.26350  0.87590  Biso   1.000  C
  C167     1.0000 0.35670  0.76350  0.62410  Biso   1.000  C
  C168     1.0000 0.85670  0.26350  0.62410  Biso   1.000  C
  C169     1.0000 0.34140  0.28900  0.10970  Biso   1.000  C
  C170     1.0000 0.84140  0.78900  0.10970  Biso   1.000  C
  C171     1.0000 0.65860  0.28900  0.39030  Biso   1.000  C
  C172     1.0000 0.15860  0.78900  0.39030  Biso   1.000  C
  C173     1.0000 0.65860  0.71100  0.89030  Biso   1.000  C
  C174     1.0000 0.15860  0.21100  0.89030  Biso   1.000  C
  C175     1.0000 0.34140  0.71100  0.60970  Biso   1.000  C
  C176     1.0000 0.84140  0.21100  0.60970  Biso   1.000  C
  C177     1.0000 0.40120  0.32520  0.11480  Biso   1.000  C
  C178     1.0000 0.90120  0.82520  0.11480  Biso   1.000  C
  C179     1.0000 0.59880  0.32520  0.38520  Biso   1.000  C
  C180     1.0000 0.09880  0.82520  0.38520  Biso   1.000  C
  C181     1.0000 0.59880  0.67480  0.88520  Biso   1.000  C
  C182     1.0000 0.09880  0.17480  0.88520  Biso   1.000  C
  C183     1.0000 0.40120  0.67480  0.61480  Biso   1.000  C
  C184     1.0000 0.90120  0.17480  0.61480  Biso   1.000  C
  H113     1.0000 0.45140  0.31870  0.12870  Biso   1.000  H
  H114     1.0000 0.95140  0.81870  0.12870  Biso   1.000  H
  H115     1.0000 0.54860  0.31870  0.37130  Biso   1.000  H
  H116     1.0000 0.04860  0.81870  0.37130  Biso   1.000  H
  H117     1.0000 0.54860  0.68130  0.87130  Biso   1.000  H
  H118     1.0000 0.04860  0.18130  0.87130  Biso   1.000  H
  H119     1.0000 0.45140  0.68130  0.62870  Biso   1.000  H
  H120     1.0000 0.95140  0.18130  0.62870  Biso   1.000  H
  C185     1.0000 0.38860  0.37370  0.09900  Biso   1.000  C
  C186     1.0000 0.88860  0.87370  0.09900  Biso   1.000  C
  C187     1.0000 0.61140  0.37370  0.40100  Biso   1.000  C
  C188     1.0000 0.11140  0.87370  0.40100  Biso   1.000  C
  C189     1.0000 0.61140  0.62630  0.90100  Biso   1.000  C
  C190     1.0000 0.11140  0.12630  0.90100  Biso   1.000  C
  C191     1.0000 0.38860  0.62630  0.59900  Biso   1.000  C
  C192     1.0000 0.88860  0.12630  0.59900  Biso   1.000  C
  H121     1.0000 0.43440  0.39720  0.10230  Biso   1.000  H
  H122     1.0000 0.93440  0.89720  0.10230  Biso   1.000  H
  H123     1.0000 0.56560  0.39720  0.39770  Biso   1.000  H
  H124     1.0000 0.06560  0.89720  0.39770  Biso   1.000  H
  H125     1.0000 0.56560  0.60280  0.89770  Biso   1.000  H
  H126     1.0000 0.06560  0.10280  0.89770  Biso   1.000  H
  H127     1.0000 0.43440  0.60280  0.60230  Biso   1.000  H
  H128     1.0000 0.93440  0.10280  0.60230  Biso   1.000  H
  C193     1.0000 0.26520  0.35550  0.07850  Biso   1.000  C
  C194     1.0000 0.76520  0.85550  0.07850  Biso   1.000  C
  C195     1.0000 0.73480  0.35550  0.42150  Biso   1.000  C
  C196     1.0000 0.23480  0.85550  0.42150  Biso   1.000  C
  C197     1.0000 0.73480  0.64450  0.92150  Biso   1.000  C
  C198     1.0000 0.23480  0.14450  0.92150  Biso   1.000  C
  C199     1.0000 0.26520  0.64450  0.57850  Biso   1.000  C
  C200     1.0000 0.76520  0.14450  0.57850  Biso   1.000  C
  H129     1.0000 0.21340  0.36550  0.06670  Biso   1.000  H
  H130     1.0000 0.71340  0.86550  0.06670  Biso   1.000  H
  H131     1.0000 0.78660  0.36550  0.43330  Biso   1.000  H
  H132     1.0000 0.28660  0.86550  0.43330  Biso   1.000  H
  H133     1.0000 0.78660  0.63450  0.93330  Biso   1.000  H
  H134     1.0000 0.28660  0.13450  0.93330  Biso   1.000  H
  H135     1.0000 0.21340  0.63450  0.56670  Biso   1.000  H
  H136     1.0000 0.71340  0.13450  0.56670  Biso   1.000  H
  C201     1.0000 0.27020  0.30300  0.09170  Biso   1.000  C
  C202     1.0000 0.77020  0.80300  0.09170  Biso   1.000  C
  C203     1.0000 0.72980  0.30300  0.40830  Biso   1.000  C
  C204     1.0000 0.22980  0.80300  0.40830  Biso   1.000  C
  C205     1.0000 0.72980  0.69700  0.90830  Biso   1.000  C
  C206     1.0000 0.22980  0.19700  0.90830  Biso   1.000  C
  C207     1.0000 0.27020  0.69700  0.59170  Biso   1.000  C
  C208     1.0000 0.77020  0.19700  0.59170  Biso   1.000  C
  H137     1.0000 0.22430  0.27980  0.08750  Biso   1.000  H
  H138     1.0000 0.72430  0.77980  0.08750  Biso   1.000  H
  H139     1.0000 0.77570  0.27980  0.41250  Biso   1.000  H
  H140     1.0000 0.27570  0.77980  0.41250  Biso   1.000  H
  H141     1.0000 0.77570  0.72020  0.91250  Biso   1.000  H
  H142     1.0000 0.27570  0.22020  0.91250  Biso   1.000  H
  H143     1.0000 0.22430  0.72020  0.58750  Biso   1.000  H
  H144     1.0000 0.72430  0.22020  0.58750  Biso   1.000  H
  C209     1.0000 0.21530  0.02670  0.22930  Biso   1.000  C
  C210     1.0000 0.71530  0.52670  0.22930  Biso   1.000  C
  C211     1.0000 0.78470  0.02670  0.27070  Biso   1.000  C
  C212     1.0000 0.28470  0.52670  0.27070  Biso   1.000  C
  C213     1.0000 0.78470  0.97330  0.77070  Biso   1.000  C
  C214     1.0000 0.28470  0.47330  0.77070  Biso   1.000  C
  C215     1.0000 0.21530  0.97330  0.72930  Biso   1.000  C
  C216     1.0000 0.71530  0.47330  0.72930  Biso   1.000  C
  H145     1.0000 0.17930  0.05150  0.21830  Biso   1.000  H
  H146     1.0000 0.67930  0.55150  0.21830  Biso   1.000  H
  H147     1.0000 0.82070  0.05150  0.28170  Biso   1.000  H
  H148     1.0000 0.32070  0.55150  0.28170  Biso   1.000  H
  H149     1.0000 0.82070  0.94850  0.78170  Biso   1.000  H
  H150     1.0000 0.32070  0.44850  0.78170  Biso   1.000  H
  H151     1.0000 0.17930  0.94850  0.71830  Biso   1.000  H
  H152     1.0000 0.67930  0.44850  0.71830  Biso   1.000  H
  C217     1.0000 0.21780  0.02150  0.26280  Biso   1.000  C
  C218     1.0000 0.71780  0.52150  0.26280  Biso   1.000  C
  C219     1.0000 0.78220  0.02150  0.23720  Biso   1.000  C
  C220     1.0000 0.28220  0.52150  0.23720  Biso   1.000  C
  C221     1.0000 0.78220  0.97850  0.73720  Biso   1.000  C
  C222     1.0000 0.28220  0.47850  0.73720  Biso   1.000  C
  C223     1.0000 0.21780  0.97850  0.76280  Biso   1.000  C
  C224     1.0000 0.71780  0.47850  0.76280  Biso   1.000  C
  H153     1.0000 0.18430  0.04420  0.27380  Biso   1.000  H
  H154     1.0000 0.68430  0.54420  0.27380  Biso   1.000  H
  H155     1.0000 0.81570  0.04420  0.22620  Biso   1.000  H
  H156     1.0000 0.31570  0.54420  0.22620  Biso   1.000  H
  H157     1.0000 0.81570  0.95580  0.72620  Biso   1.000  H
  H158     1.0000 0.31570  0.45580  0.72620  Biso   1.000  H
  H159     1.0000 0.18430  0.95580  0.77380  Biso   1.000  H
  H160     1.0000 0.68430  0.45580  0.77380  Biso   1.000  H
  C225     1.0000 0.31030  0.95340  0.26350  Biso   1.000  C
  C226     1.0000 0.81030  0.45340  0.26350  Biso   1.000  C
  C227     1.0000 0.68970  0.95340  0.23650  Biso   1.000  C
  C228     1.0000 0.18970  0.45340  0.23650  Biso   1.000  C
  C229     1.0000 0.68970  0.04660  0.73650  Biso   1.000  C
  C230     1.0000 0.18970  0.54660  0.73650  Biso   1.000  C
  C231     1.0000 0.31030  0.04660  0.76350  Biso   1.000  C
  C232     1.0000 0.81030  0.54660  0.76350  Biso   1.000  C
  H161     1.0000 0.34270  0.92720  0.27480  Biso   1.000  H
  H162     1.0000 0.84270  0.42720  0.27480  Biso   1.000  H
  H163     1.0000 0.65730  0.92720  0.22520  Biso   1.000  H
  H164     1.0000 0.15730  0.42720  0.22520  Biso   1.000  H
  H165     1.0000 0.65730  0.07280  0.72520  Biso   1.000  H
  H166     1.0000 0.15730  0.57280  0.72520  Biso   1.000  H
  H167     1.0000 0.34270  0.07280  0.77480  Biso   1.000  H
  H168     1.0000 0.84270  0.57280  0.77480  Biso   1.000  H
  C233     1.0000 0.31100  0.95650  0.23030  Biso   1.000  C
  C234     1.0000 0.81100  0.45650  0.23030  Biso   1.000  C
  C235     1.0000 0.68900  0.95650  0.26970  Biso   1.000  C
  C236     1.0000 0.18900  0.45650  0.26970  Biso   1.000  C
  C237     1.0000 0.68900  0.04350  0.76970  Biso   1.000  C
  C238     1.0000 0.18900  0.54350  0.76970  Biso   1.000  C
  C239     1.0000 0.31100  0.04350  0.73030  Biso   1.000  C
  C240     1.0000 0.81100  0.54350  0.73030  Biso   1.000  C
  H169     1.0000 0.34250  0.93220  0.21960  Biso   1.000  H
  H170     1.0000 0.84250  0.43220  0.21960  Biso   1.000  H
  H171     1.0000 0.65750  0.93220  0.28040  Biso   1.000  H
  H172     1.0000 0.15750  0.43220  0.28040  Biso   1.000  H
  H173     1.0000 0.65750  0.06780  0.78040  Biso   1.000  H
  H174     1.0000 0.15750  0.56780  0.78040  Biso   1.000  H
  H175     1.0000 0.34250  0.06780  0.71960  Biso   1.000  H
  H176     1.0000 0.84250  0.56780  0.71960  Biso   1.000  H
  C241     1.0000 0.26570  0.99540  0.21201  Biso   1.000  C
  C242     1.0000 0.76570  0.49540  0.21201  Biso   1.000  C
  C243     1.0000 0.73430  0.99540  0.28799  Biso   1.000  C
  C244     1.0000 0.23430  0.49540  0.28799  Biso   1.000  C
  C245     1.0000 0.73430  0.00460  0.78799  Biso   1.000  C
  C246     1.0000 0.23430  0.50460  0.78799  Biso   1.000  C
  C247     1.0000 0.26570  0.00460  0.71201  Biso   1.000  C
  C248     1.0000 0.76570  0.50460  0.71201  Biso   1.000  C
  C249     1.0000 0.27140  0.99980  0.17689  Biso   1.000  C
  C250     1.0000 0.77140  0.49980  0.17689  Biso   1.000  C
  C251     1.0000 0.72860  0.99980  0.32311  Biso   1.000  C
  C252     1.0000 0.22860  0.49980  0.32311  Biso   1.000  C
  C253     1.0000 0.72860  0.00020  0.82311  Biso   1.000  C
  C254     1.0000 0.22860  0.50020  0.82311  Biso   1.000  C
  C255     1.0000 0.27140  0.00020  0.67689  Biso   1.000  C
  C256     1.0000 0.77140  0.50020  0.67689  Biso   1.000  C
  C257     1.0000 0.29370  0.96070  0.15609  Biso   1.000  C
  C258     1.0000 0.79370  0.46070  0.15609  Biso   1.000  C
  C259     1.0000 0.70630  0.96070  0.34391  Biso   1.000  C
  C260     1.0000 0.20630  0.46070  0.34391  Biso   1.000  C
  C261     1.0000 0.70630  0.03930  0.84391  Biso   1.000  C
  C262     1.0000 0.20630  0.53930  0.84391  Biso   1.000  C
  C263     1.0000 0.29370  0.03930  0.65609  Biso   1.000  C
  C264     1.0000 0.79370  0.53930  0.65609  Biso   1.000  C
  H177     1.0000 0.30530  0.92580  0.16140  Biso   1.000  H
  H178     1.0000 0.80530  0.42580  0.16140  Biso   1.000  H
  H179     1.0000 0.69470  0.92580  0.33860  Biso   1.000  H
  H180     1.0000 0.19470  0.42580  0.33860  Biso   1.000  H
  H181     1.0000 0.69470  0.07420  0.83860  Biso   1.000  H
  H182     1.0000 0.19470  0.57420  0.83860  Biso   1.000  H
  H183     1.0000 0.30530  0.07420  0.66140  Biso   1.000  H
  H184     1.0000 0.80530  0.57420  0.66140  Biso   1.000  H
  C265     1.0000 0.29510  0.98440  0.12558  Biso   1.000  C
  C266     1.0000 0.79510  0.48440  0.12558  Biso   1.000  C
  C267     1.0000 0.70490  0.98440  0.37442  Biso   1.000  C
  C268     1.0000 0.20490  0.48440  0.37442  Biso   1.000  C
  C269     1.0000 0.70490  0.01560  0.87442  Biso   1.000  C
  C270     1.0000 0.20490  0.51560  0.87442  Biso   1.000  C
  C271     1.0000 0.29510  0.01560  0.62558  Biso   1.000  C
  C272     1.0000 0.79510  0.51560  0.62558  Biso   1.000  C
  C273     1.0000 0.31400  0.96010  0.09412  Biso   1.000  C
  C274     1.0000 0.81400  0.46010  0.09412  Biso   1.000  C
  C275     1.0000 0.68600  0.96010  0.40588  Biso   1.000  C
  C276     1.0000 0.18600  0.46010  0.40588  Biso   1.000  C
  C277     1.0000 0.68600  0.03990  0.90588  Biso   1.000  C
  C278     1.0000 0.18600  0.53990  0.90588  Biso   1.000  C
  C279     1.0000 0.31400  0.03990  0.59412  Biso   1.000  C
  C280     1.0000 0.81400  0.53990  0.59412  Biso   1.000  C
  C281     1.0000 0.29200  0.90920  0.08735  Biso   1.000  C
  C282     1.0000 0.79200  0.40920  0.08735  Biso   1.000  C
  C283     1.0000 0.70800  0.90920  0.41265  Biso   1.000  C
  C284     1.0000 0.20800  0.40920  0.41265  Biso   1.000  C
  C285     1.0000 0.70800  0.09080  0.91265  Biso   1.000  C
  C286     1.0000 0.20800  0.59080  0.91265  Biso   1.000  C
  C287     1.0000 0.29200  0.09080  0.58735  Biso   1.000  C
  C288     1.0000 0.79200  0.59080  0.58735  Biso   1.000  C
  H185     1.0000 0.26500  0.88950  0.10240  Biso   1.000  H
  H186     1.0000 0.76500  0.38950  0.10240  Biso   1.000  H
  H187     1.0000 0.73500  0.88950  0.39760  Biso   1.000  H
  H188     1.0000 0.23500  0.38950  0.39760  Biso   1.000  H
  H189     1.0000 0.73500  0.11050  0.89760  Biso   1.000  H
  H190     1.0000 0.23500  0.61050  0.89760  Biso   1.000  H
  H191     1.0000 0.26500  0.11050  0.60240  Biso   1.000  H
  H192     1.0000 0.76500  0.61050  0.60240  Biso   1.000  H
  C289     1.0000 0.31050  0.88710  0.05770  Biso   1.000  C
  C290     1.0000 0.81050  0.38710  0.05770  Biso   1.000  C
  C291     1.0000 0.68950  0.88710  0.44230  Biso   1.000  C
  C292     1.0000 0.18950  0.38710  0.44230  Biso   1.000  C
  C293     1.0000 0.68950  0.11290  0.94230  Biso   1.000  C
  C294     1.0000 0.18950  0.61290  0.94230  Biso   1.000  C
  C295     1.0000 0.31050  0.11290  0.55770  Biso   1.000  C
  C296     1.0000 0.81050  0.61290  0.55770  Biso   1.000  C
  H193     1.0000 0.29440  0.85260  0.05330  Biso   1.000  H
  H194     1.0000 0.79440  0.35260  0.05330  Biso   1.000  H
  H195     1.0000 0.70560  0.85260  0.44670  Biso   1.000  H
  H196     1.0000 0.20560  0.35260  0.44670  Biso   1.000  H
  H197     1.0000 0.70560  0.14740  0.94670  Biso   1.000  H
  H198     1.0000 0.20560  0.64740  0.94670  Biso   1.000  H
  H199     1.0000 0.29440  0.14740  0.55330  Biso   1.000  H
  H200     1.0000 0.79440  0.64740  0.55330  Biso   1.000  H
  C297     1.0000 0.37220  0.96300  0.04250  Biso   1.000  C
  C298     1.0000 0.87220  0.46300  0.04250  Biso   1.000  C
  C299     1.0000 0.62780  0.96300  0.45750  Biso   1.000  C
  C300     1.0000 0.12780  0.46300  0.45750  Biso   1.000  C
  C301     1.0000 0.62780  0.03700  0.95750  Biso   1.000  C
  C302     1.0000 0.12780  0.53700  0.95750  Biso   1.000  C
  C303     1.0000 0.37220  0.03700  0.54250  Biso   1.000  C
  C304     1.0000 0.87220  0.53700  0.54250  Biso   1.000  C
  H201     1.0000 0.40030  0.98190  0.02740  Biso   1.000  H
  H202     1.0000 0.90030  0.48190  0.02740  Biso   1.000  H
  H203     1.0000 0.59970  0.98190  0.47260  Biso   1.000  H
  H204     1.0000 0.09970  0.48190  0.47260  Biso   1.000  H
  H205     1.0000 0.59970  0.01810  0.97260  Biso   1.000  H
  H206     1.0000 0.09970  0.51810  0.97260  Biso   1.000  H
  H207     1.0000 0.40030  0.01810  0.52740  Biso   1.000  H
  H208     1.0000 0.90030  0.51810  0.52740  Biso   1.000  H
  C305     1.0000 0.35460  0.98710  0.07130  Biso   1.000  C
  C306     1.0000 0.85460  0.48710  0.07130  Biso   1.000  C
  C307     1.0000 0.64540  0.98710  0.42870  Biso   1.000  C
  C308     1.0000 0.14540  0.48710  0.42870  Biso   1.000  C
  C309     1.0000 0.64540  0.01290  0.92870  Biso   1.000  C
  C310     1.0000 0.14540  0.51290  0.92870  Biso   1.000  C
  C311     1.0000 0.35460  0.01290  0.57130  Biso   1.000  C
  C312     1.0000 0.85460  0.51290  0.57130  Biso   1.000  C
  H209     1.0000 0.37040  0.02180  0.07530  Biso   1.000  H
  H210     1.0000 0.87040  0.52180  0.07530  Biso   1.000  H
  H211     1.0000 0.62960  0.02180  0.42470  Biso   1.000  H
  H212     1.0000 0.12960  0.52180  0.42470  Biso   1.000  H
  H213     1.0000 0.62960  0.97820  0.92470  Biso   1.000  H
  H214     1.0000 0.12960  0.47820  0.92470  Biso   1.000  H
  H215     1.0000 0.37040  0.97820  0.57530  Biso   1.000  H
  H216     1.0000 0.87040  0.47820  0.57530  Biso   1.000  H
  C313     1.0000 0.56650  0.56310  0.02046  Biso   1.000  C
  C314     1.0000 0.06650  0.06310  0.02046  Biso   1.000  C
  C315     1.0000 0.43350  0.56310  0.47954  Biso   1.000  C
  C316     1.0000 0.93350  0.06310  0.47954  Biso   1.000  C
  C317     1.0000 0.43350  0.43690  0.97954  Biso   1.000  C
  C318     1.0000 0.93350  0.93690  0.97954  Biso   1.000  C
  C319     1.0000 0.56650  0.43690  0.52046  Biso   1.000  C
  C320     1.0000 0.06650  0.93690  0.52046  Biso   1.000  C
  H217     1.0000 0.53560  0.59090  0.02800  Biso   1.000  H
  H218     1.0000 0.03560  0.09090  0.02800  Biso   1.000  H
  H219     1.0000 0.46440  0.59090  0.47200  Biso   1.000  H
  H220     1.0000 0.96440  0.09090  0.47200  Biso   1.000  H
  H221     1.0000 0.46440  0.40910  0.97200  Biso   1.000  H
  H222     1.0000 0.96440  0.90910  0.97200  Biso   1.000  H
  H223     1.0000 0.53560  0.40910  0.52800  Biso   1.000  H
  H224     1.0000 0.03560  0.90910  0.52800  Biso   1.000  H
  C321     1.0000 0.59030  0.56330  0.98860  Biso   1.000  C
  C322     1.0000 0.09030  0.06330  0.98860  Biso   1.000  C
  C323     1.0000 0.40970  0.56330  0.51140  Biso   1.000  C
  C324     1.0000 0.90970  0.06330  0.51140  Biso   1.000  C
  C325     1.0000 0.40970  0.43670  0.01140  Biso   1.000  C
  C326     1.0000 0.90970  0.93670  0.01140  Biso   1.000  C
  C327     1.0000 0.59030  0.43670  0.48860  Biso   1.000  C
  C328     1.0000 0.09030  0.93670  0.48860  Biso   1.000  C
  H225     1.0000 0.57450  0.59210  0.97540  Biso   1.000  H
  H226     1.0000 0.07450  0.09210  0.97540  Biso   1.000  H
  H227     1.0000 0.42550  0.59210  0.52460  Biso   1.000  H
  H228     1.0000 0.92550  0.09210  0.52460  Biso   1.000  H
  H229     1.0000 0.42550  0.40790  0.02460  Biso   1.000  H
  H230     1.0000 0.92550  0.90790  0.02460  Biso   1.000  H
  H231     1.0000 0.57450  0.40790  0.47540  Biso   1.000  H
  H232     1.0000 0.07450  0.90790  0.47540  Biso   1.000  H
  C329     1.0000 0.65270  0.48450  0.99530  Biso   1.000  C
  C330     1.0000 0.15270  0.98450  0.99530  Biso   1.000  C
  C331     1.0000 0.34730  0.48450  0.50470  Biso   1.000  C
  C332     1.0000 0.84730  0.98450  0.50470  Biso   1.000  C
  C333     1.0000 0.34730  0.51550  0.00470  Biso   1.000  C
  C334     1.0000 0.84730  0.01550  0.00470  Biso   1.000  C
  C335     1.0000 0.65270  0.51550  0.49530  Biso   1.000  C
  C336     1.0000 0.15270  0.01550  0.49530  Biso   1.000  C
  H233     1.0000 0.68130  0.45650  0.98690  Biso   1.000  H
  H234     1.0000 0.18130  0.95650  0.98690  Biso   1.000  H
  H235     1.0000 0.31870  0.45650  0.51310  Biso   1.000  H
  H236     1.0000 0.81870  0.95650  0.51310  Biso   1.000  H
  H237     1.0000 0.31870  0.54350  0.01310  Biso   1.000  H
  H238     1.0000 0.81870  0.04350  0.01310  Biso   1.000  H
  H239     1.0000 0.68130  0.54350  0.48690  Biso   1.000  H
  H240     1.0000 0.18130  0.04350  0.48690  Biso   1.000  H
  C337     1.0000 0.63350  0.48050  0.02660  Biso   1.000  C
  C338     1.0000 0.13350  0.98050  0.02660  Biso   1.000  C
  C339     1.0000 0.36650  0.48050  0.47340  Biso   1.000  C
  C340     1.0000 0.86650  0.98050  0.47340  Biso   1.000  C
  C341     1.0000 0.36650  0.51950  0.97340  Biso   1.000  C
  C342     1.0000 0.86650  0.01950  0.97340  Biso   1.000  C
  C343     1.0000 0.63350  0.51950  0.52660  Biso   1.000  C
  C344     1.0000 0.13350  0.01950  0.52660  Biso   1.000  C
  H241     1.0000 0.64940  0.45070  0.03880  Biso   1.000  H
  H242     1.0000 0.14940  0.95070  0.03880  Biso   1.000  H
  H243     1.0000 0.35060  0.45070  0.46120  Biso   1.000  H
  H244     1.0000 0.85060  0.95070  0.46120  Biso   1.000  H
  H245     1.0000 0.35060  0.54930  0.96120  Biso   1.000  H
  H246     1.0000 0.85060  0.04930  0.96120  Biso   1.000  H
  H247     1.0000 0.64940  0.54930  0.53880  Biso   1.000  H
  H248     1.0000 0.14940  0.04930  0.53880  Biso   1.000  H
  C345     1.0000 0.58980  0.52070  0.04074  Biso   1.000  C
  C346     1.0000 0.08980  0.02070  0.04074  Biso   1.000  C
  C347     1.0000 0.41020  0.52070  0.45926  Biso   1.000  C
  C348     1.0000 0.91020  0.02070  0.45926  Biso   1.000  C
  C349     1.0000 0.41020  0.47930  0.95926  Biso   1.000  C
  C350     1.0000 0.91020  0.97930  0.95926  Biso   1.000  C
  C351     1.0000 0.58980  0.47930  0.54074  Biso   1.000  C
  C352     1.0000 0.08980  0.97930  0.54074  Biso   1.000  C
  C353     1.0000 0.57040  0.51760  0.07508  Biso   1.000  C
  C354     1.0000 0.07040  0.01760  0.07508  Biso   1.000  C
  C355     1.0000 0.42960  0.51760  0.42492  Biso   1.000  C
  C356     1.0000 0.92960  0.01760  0.42492  Biso   1.000  C
  C357     1.0000 0.42960  0.48240  0.92492  Biso   1.000  C
  C358     1.0000 0.92960  0.98240  0.92492  Biso   1.000  C
  C359     1.0000 0.57040  0.48240  0.57508  Biso   1.000  C
  C360     1.0000 0.07040  0.98240  0.57508  Biso   1.000  C
  C361     1.0000 0.57010  0.47290  0.09457  Biso   1.000  C
  C362     1.0000 0.07010  0.97290  0.09457  Biso   1.000  C
  C363     1.0000 0.42990  0.47290  0.40543  Biso   1.000  C
  C364     1.0000 0.92990  0.97290  0.40543  Biso   1.000  C
  C365     1.0000 0.42990  0.52710  0.90543  Biso   1.000  C
  C366     1.0000 0.92990  0.02710  0.90543  Biso   1.000  C
  C367     1.0000 0.57010  0.52710  0.59457  Biso   1.000  C
  C368     1.0000 0.07010  0.02710  0.59457  Biso   1.000  C
  H249     1.0000 0.57940  0.43860  0.08830  Biso   1.000  H
  H250     1.0000 0.07940  0.93860  0.08830  Biso   1.000  H
  H251     1.0000 0.42060  0.43860  0.41170  Biso   1.000  H
  H252     1.0000 0.92060  0.93860  0.41170  Biso   1.000  H
  H253     1.0000 0.42060  0.56140  0.91170  Biso   1.000  H
  H254     1.0000 0.92060  0.06140  0.91170  Biso   1.000  H
  H255     1.0000 0.57940  0.56140  0.58830  Biso   1.000  H
  H256     1.0000 0.07940  0.06140  0.58830  Biso   1.000  H
  C369     1.0000 0.55320  0.49040  0.12525  Biso   1.000  C
  C370     1.0000 0.05320  0.99040  0.12525  Biso   1.000  C
  C371     1.0000 0.44680  0.49040  0.37475  Biso   1.000  C
  C372     1.0000 0.94680  0.99040  0.37475  Biso   1.000  C
  C373     1.0000 0.44680  0.50960  0.87475  Biso   1.000  C
  C374     1.0000 0.94680  0.00960  0.87475  Biso   1.000  C
  C375     1.0000 0.55320  0.50960  0.62525  Biso   1.000  C
  C376     1.0000 0.05320  0.00960  0.62525  Biso   1.000  C
  C377     1.0000 0.54210  0.46020  0.15519  Biso   1.000  C
  C378     1.0000 0.04210  0.96020  0.15519  Biso   1.000  C
  C379     1.0000 0.45790  0.46020  0.34481  Biso   1.000  C
  C380     1.0000 0.95790  0.96020  0.34481  Biso   1.000  C
  C381     1.0000 0.45790  0.53980  0.84481  Biso   1.000  C
  C382     1.0000 0.95790  0.03980  0.84481  Biso   1.000  C
  C383     1.0000 0.54210  0.53980  0.65519  Biso   1.000  C
  C384     1.0000 0.04210  0.03980  0.65519  Biso   1.000  C
  C385     1.0000 0.58090  0.41090  0.15978  Biso   1.000  C
  C386     1.0000 0.08090  0.91090  0.15978  Biso   1.000  C
  C387     1.0000 0.41910  0.41090  0.34022  Biso   1.000  C
  C388     1.0000 0.91910  0.91090  0.34022  Biso   1.000  C
  C389     1.0000 0.41910  0.58910  0.84022  Biso   1.000  C
  C390     1.0000 0.91910  0.08910  0.84022  Biso   1.000  C
  C391     1.0000 0.58090  0.58910  0.65978  Biso   1.000  C
  C392     1.0000 0.08090  0.08910  0.65978  Biso   1.000  C
  H257     1.0000 0.61490  0.39760  0.14440  Biso   1.000  H
  H258     1.0000 0.11490  0.89760  0.14440  Biso   1.000  H
  H259     1.0000 0.38510  0.39760  0.35560  Biso   1.000  H
  H260     1.0000 0.88510  0.89760  0.35560  Biso   1.000  H
  H261     1.0000 0.38510  0.60240  0.85560  Biso   1.000  H
  H262     1.0000 0.88510  0.10240  0.85560  Biso   1.000  H
  H263     1.0000 0.61490  0.60240  0.64440  Biso   1.000  H
  H264     1.0000 0.11490  0.10240  0.64440  Biso   1.000  H
  C393     1.0000 0.56780  0.38230  0.18750  Biso   1.000  C
  C394     1.0000 0.06780  0.88230  0.18750  Biso   1.000  C
  C395     1.0000 0.43220  0.38230  0.31250  Biso   1.000  C
  C396     1.0000 0.93220  0.88230  0.31250  Biso   1.000  C
  C397     1.0000 0.43220  0.61770  0.81250  Biso   1.000  C
  C398     1.0000 0.93220  0.11770  0.81250  Biso   1.000  C
  C399     1.0000 0.56780  0.61770  0.68750  Biso   1.000  C
  C400     1.0000 0.06780  0.11770  0.68750  Biso   1.000  C
  H265     1.0000 0.59340  0.34950  0.19000  Biso   1.000  H
  H266     1.0000 0.09340  0.84950  0.19000  Biso   1.000  H
  H267     1.0000 0.40660  0.34950  0.31000  Biso   1.000  H
  H268     1.0000 0.90660  0.84950  0.31000  Biso   1.000  H
  H269     1.0000 0.40660  0.65050  0.81000  Biso   1.000  H
  H270     1.0000 0.90660  0.15050  0.81000  Biso   1.000  H
  H271     1.0000 0.59340  0.65050  0.69000  Biso   1.000  H
  H272     1.0000 0.09340  0.15050  0.69000  Biso   1.000  H
  C401     1.0000 0.48240  0.44520  0.20550  Biso   1.000  C
  C402     1.0000 0.98240  0.94520  0.20550  Biso   1.000  C
  C403     1.0000 0.51760  0.44520  0.29450  Biso   1.000  C
  C404     1.0000 0.01760  0.94520  0.29450  Biso   1.000  C
  C405     1.0000 0.51760  0.55480  0.79450  Biso   1.000  C
  C406     1.0000 0.01760  0.05480  0.79450  Biso   1.000  C
  C407     1.0000 0.48240  0.55480  0.70550  Biso   1.000  C
  C408     1.0000 0.98240  0.05480  0.70550  Biso   1.000  C
  H273     1.0000 0.44660  0.45680  0.22070  Biso   1.000  H
  H274     1.0000 0.94660  0.95680  0.22070  Biso   1.000  H
  H275     1.0000 0.55340  0.45680  0.27930  Biso   1.000  H
  H276     1.0000 0.05340  0.95680  0.27930  Biso   1.000  H
  H277     1.0000 0.55340  0.54320  0.77930  Biso   1.000  H
  H278     1.0000 0.05340  0.04320  0.77930  Biso   1.000  H
  H279     1.0000 0.44660  0.54320  0.72070  Biso   1.000  H
  H280     1.0000 0.94660  0.04320  0.72070  Biso   1.000  H
  C409     1.0000 0.49280  0.47660  0.17880  Biso   1.000  C
  C410     1.0000 0.99280  0.97660  0.17880  Biso   1.000  C
  C411     1.0000 0.50720  0.47660  0.32120  Biso   1.000  C
  C412     1.0000 0.00720  0.97660  0.32120  Biso   1.000  C
  C413     1.0000 0.50720  0.52340  0.82120  Biso   1.000  C
  C414     1.0000 0.00720  0.02340  0.82120  Biso   1.000  C
  C415     1.0000 0.49280  0.52340  0.67880  Biso   1.000  C
  C416     1.0000 0.99280  0.02340  0.67880  Biso   1.000  C
  H281     1.0000 0.46610  0.50910  0.17690  Biso   1.000  H
  H282     1.0000 0.96610  0.00910  0.17690  Biso   1.000  H
  H283     1.0000 0.53390  0.50910  0.32310  Biso   1.000  H
  H284     1.0000 0.03390  0.00910  0.32310  Biso   1.000  H
  H285     1.0000 0.53390  0.49090  0.82310  Biso   1.000  H
  H286     1.0000 0.03390  0.99090  0.82310  Biso   1.000  H
  H287     1.0000 0.46610  0.49090  0.67690  Biso   1.000  H
  H288     1.0000 0.96610  0.99090  0.67690  Biso   1.000  H
  C417     1.0000 0.33120  0.63750  0.08430  Biso   1.000  C
  C418     1.0000 0.83120  0.13750  0.08430  Biso   1.000  C
  C419     1.0000 0.66880  0.63750  0.41570  Biso   1.000  C
  C420     1.0000 0.16880  0.13750  0.41570  Biso   1.000  C
  C421     1.0000 0.66880  0.36250  0.91570  Biso   1.000  C
  C422     1.0000 0.16880  0.86250  0.91570  Biso   1.000  C
  C423     1.0000 0.33120  0.36250  0.58430  Biso   1.000  C
  C424     1.0000 0.83120  0.86250  0.58430  Biso   1.000  C
  H289     1.0000 0.36210  0.61570  0.09960  Biso   1.000  H
  H290     1.0000 0.86210  0.11570  0.09960  Biso   1.000  H
  H291     1.0000 0.63790  0.61570  0.40040  Biso   1.000  H
  H292     1.0000 0.13790  0.11570  0.40040  Biso   1.000  H
  H293     1.0000 0.63790  0.38430  0.90040  Biso   1.000  H
  H294     1.0000 0.13790  0.88430  0.90040  Biso   1.000  H
  H295     1.0000 0.36210  0.38430  0.59960  Biso   1.000  H
  H296     1.0000 0.86210  0.88430  0.59960  Biso   1.000  H
  C425     1.0000 0.26170  0.61770  0.06350  Biso   1.000  C
  C426     1.0000 0.76170  0.11770  0.06350  Biso   1.000  C
  C427     1.0000 0.73830  0.61770  0.43650  Biso   1.000  C
  C428     1.0000 0.23830  0.11770  0.43650  Biso   1.000  C
  C429     1.0000 0.73830  0.38230  0.93650  Biso   1.000  C
  C430     1.0000 0.23830  0.88230  0.93650  Biso   1.000  C
  C431     1.0000 0.26170  0.38230  0.56350  Biso   1.000  C
  C432     1.0000 0.76170  0.88230  0.56350  Biso   1.000  C
  H297     1.0000 0.24630  0.58290  0.06610  Biso   1.000  H
  H298     1.0000 0.74630  0.08290  0.06610  Biso   1.000  H
  H299     1.0000 0.75370  0.58290  0.43390  Biso   1.000  H
  H300     1.0000 0.25370  0.08290  0.43390  Biso   1.000  H
  H301     1.0000 0.75370  0.41710  0.93390  Biso   1.000  H
  H302     1.0000 0.25370  0.91710  0.93390  Biso   1.000  H
  H303     1.0000 0.24630  0.41710  0.56610  Biso   1.000  H
  H304     1.0000 0.74630  0.91710  0.56610  Biso   1.000  H
  C433     1.0000 0.23740  0.69500  0.03930  Biso   1.000  C
  C434     1.0000 0.73740  0.19500  0.03930  Biso   1.000  C
  C435     1.0000 0.76260  0.69500  0.46070  Biso   1.000  C
  C436     1.0000 0.26260  0.19500  0.46070  Biso   1.000  C
  C437     1.0000 0.76260  0.30500  0.96070  Biso   1.000  C
  C438     1.0000 0.26260  0.80500  0.96070  Biso   1.000  C
  C439     1.0000 0.23740  0.30500  0.53930  Biso   1.000  C
  C440     1.0000 0.73740  0.80500  0.53930  Biso   1.000  C
  H305     1.0000 0.20450  0.71600  0.02410  Biso   1.000  H
  H306     1.0000 0.70450  0.21600  0.02410  Biso   1.000  H
  H307     1.0000 0.79550  0.71600  0.47590  Biso   1.000  H
  H308     1.0000 0.29550  0.21600  0.47590  Biso   1.000  H
  H309     1.0000 0.79550  0.28400  0.97590  Biso   1.000  H
  H310     1.0000 0.29550  0.78400  0.97590  Biso   1.000  H
  H311     1.0000 0.20450  0.28400  0.52410  Biso   1.000  H
  H312     1.0000 0.70450  0.78400  0.52410  Biso   1.000  H
  C441     1.0000 0.30370  0.71800  0.05880  Biso   1.000  C
  C442     1.0000 0.80370  0.21800  0.05880  Biso   1.000  C
  C443     1.0000 0.69630  0.71800  0.44120  Biso   1.000  C
  C444     1.0000 0.19630  0.21800  0.44120  Biso   1.000  C
  C445     1.0000 0.69630  0.28200  0.94120  Biso   1.000  C
  C446     1.0000 0.19630  0.78200  0.94120  Biso   1.000  C
  C447     1.0000 0.30370  0.28200  0.55880  Biso   1.000  C
  C448     1.0000 0.80370  0.78200  0.55880  Biso   1.000  C
  H313     1.0000 0.31540  0.75340  0.05630  Biso   1.000  H
  H314     1.0000 0.81540  0.25340  0.05630  Biso   1.000  H
  H315     1.0000 0.68460  0.75340  0.44370  Biso   1.000  H
  H316     1.0000 0.18460  0.25340  0.44370  Biso   1.000  H
  H317     1.0000 0.68460  0.24660  0.94370  Biso   1.000  H
  H318     1.0000 0.18460  0.74660  0.94370  Biso   1.000  H
  H319     1.0000 0.31540  0.24660  0.55630  Biso   1.000  H
  H320     1.0000 0.81540  0.74660  0.55630  Biso   1.000  H
  C449     1.0000 0.35400  0.68860  0.08250  Biso   1.000  C
  C450     1.0000 0.85400  0.18860  0.08250  Biso   1.000  C
  C451     1.0000 0.64600  0.68860  0.41750  Biso   1.000  C
  C452     1.0000 0.14600  0.18860  0.41750  Biso   1.000  C
  C453     1.0000 0.64600  0.31140  0.91750  Biso   1.000  C
  C454     1.0000 0.14600  0.81140  0.91750  Biso   1.000  C
  C455     1.0000 0.35400  0.31140  0.58250  Biso   1.000  C
  C456     1.0000 0.85400  0.81140  0.58250  Biso   1.000  C
  C457     1.0000 0.42530  0.71520  0.10256  Biso   1.000  C
  C458     1.0000 0.92530  0.21520  0.10256  Biso   1.000  C
  C459     1.0000 0.57470  0.71520  0.39744  Biso   1.000  C
  C460     1.0000 0.07470  0.21520  0.39744  Biso   1.000  C
  C461     1.0000 0.57470  0.28480  0.89744  Biso   1.000  C
  C462     1.0000 0.07470  0.78480  0.89744  Biso   1.000  C
  C463     1.0000 0.42530  0.28480  0.60256  Biso   1.000  C
  C464     1.0000 0.92530  0.78480  0.60256  Biso   1.000  C
  C465     1.0000 0.42690  0.76600  0.11450  Biso   1.000  C
  C466     1.0000 0.92690  0.26600  0.11450  Biso   1.000  C
  C467     1.0000 0.57310  0.76600  0.38550  Biso   1.000  C
  C468     1.0000 0.07310  0.26600  0.38550  Biso   1.000  C
  C469     1.0000 0.57310  0.23400  0.88550  Biso   1.000  C
  C470     1.0000 0.07310  0.73400  0.88550  Biso   1.000  C
  C471     1.0000 0.42690  0.23400  0.61450  Biso   1.000  C
  C472     1.0000 0.92690  0.73400  0.61450  Biso   1.000  C
  H321     1.0000 0.38120  0.78960  0.11350  Biso   1.000  H
  H322     1.0000 0.88120  0.28960  0.11350  Biso   1.000  H
  H323     1.0000 0.61880  0.78960  0.38650  Biso   1.000  H
  H324     1.0000 0.11880  0.28960  0.38650  Biso   1.000  H
  H325     1.0000 0.61880  0.21040  0.88650  Biso   1.000  H
  H326     1.0000 0.11880  0.71040  0.88650  Biso   1.000  H
  H327     1.0000 0.38120  0.21040  0.61350  Biso   1.000  H
  H328     1.0000 0.88120  0.71040  0.61350  Biso   1.000  H
  C473     1.0000 0.51140  0.77430  0.12845  Biso   1.000  C
  C474     1.0000 0.01140  0.27430  0.12845  Biso   1.000  C
  C475     1.0000 0.48860  0.77430  0.37155  Biso   1.000  C
  C476     1.0000 0.98860  0.27430  0.37155  Biso   1.000  C
  C477     1.0000 0.48860  0.22570  0.87155  Biso   1.000  C
  C478     1.0000 0.98860  0.72570  0.87155  Biso   1.000  C
  C479     1.0000 0.51140  0.22570  0.62845  Biso   1.000  C
  C480     1.0000 0.01140  0.72570  0.62845  Biso   1.000  C
  C481     1.0000 0.55240  0.82300  0.14072  Biso   1.000  C
  C482     1.0000 0.05240  0.32300  0.14072  Biso   1.000  C
  C483     1.0000 0.44760  0.82300  0.35928  Biso   1.000  C
  C484     1.0000 0.94760  0.32300  0.35928  Biso   1.000  C
  C485     1.0000 0.44760  0.17700  0.85928  Biso   1.000  C
  C486     1.0000 0.94760  0.67700  0.85928  Biso   1.000  C
  C487     1.0000 0.55240  0.17700  0.64072  Biso   1.000  C
  C488     1.0000 0.05240  0.67700  0.64072  Biso   1.000  C
  C489     1.0000 0.51440  0.87060  0.13470  Biso   1.000  C
  C490     1.0000 0.01440  0.37060  0.13470  Biso   1.000  C
  C491     1.0000 0.48560  0.87060  0.36530  Biso   1.000  C
  C492     1.0000 0.98560  0.37060  0.36530  Biso   1.000  C
  C493     1.0000 0.48560  0.12940  0.86530  Biso   1.000  C
  C494     1.0000 0.98560  0.62940  0.86530  Biso   1.000  C
  C495     1.0000 0.51440  0.12940  0.63470  Biso   1.000  C
  C496     1.0000 0.01440  0.62940  0.63470  Biso   1.000  C
  H329     1.0000 0.45910  0.87220  0.12350  Biso   1.000  H
  H330     1.0000 0.95910  0.37220  0.12350  Biso   1.000  H
  H331     1.0000 0.54090  0.87220  0.37650  Biso   1.000  H
  H332     1.0000 0.04090  0.37220  0.37650  Biso   1.000  H
  H333     1.0000 0.54090  0.12780  0.87650  Biso   1.000  H
  H334     1.0000 0.04090  0.62780  0.87650  Biso   1.000  H
  H335     1.0000 0.45910  0.12780  0.62350  Biso   1.000  H
  H336     1.0000 0.95910  0.62780  0.62350  Biso   1.000  H
  C497     1.0000 0.55500  0.91540  0.14470  Biso   1.000  C
  C498     1.0000 0.05500  0.41540  0.14470  Biso   1.000  C
  C499     1.0000 0.44500  0.91540  0.35530  Biso   1.000  C
  C500     1.0000 0.94500  0.41540  0.35530  Biso   1.000  C
  C501     1.0000 0.44500  0.08460  0.85530  Biso   1.000  C
  C502     1.0000 0.94500  0.58460  0.85530  Biso   1.000  C
  C503     1.0000 0.55500  0.08460  0.64470  Biso   1.000  C
  C504     1.0000 0.05500  0.58460  0.64470  Biso   1.000  C
  H337     1.0000 0.52530  0.94670  0.14050  Biso   1.000  H
  H338     1.0000 0.02530  0.44670  0.14050  Biso   1.000  H
  H339     1.0000 0.47470  0.94670  0.35950  Biso   1.000  H
  H340     1.0000 0.97470  0.44670  0.35950  Biso   1.000  H
  H341     1.0000 0.47470  0.05330  0.85950  Biso   1.000  H
  H342     1.0000 0.97470  0.55330  0.85950  Biso   1.000  H
  H343     1.0000 0.52530  0.05330  0.64050  Biso   1.000  H
  H344     1.0000 0.02530  0.55330  0.64050  Biso   1.000  H
  C505     1.0000 0.67230  0.87220  0.16530  Biso   1.000  C
  C506     1.0000 0.17230  0.37220  0.16530  Biso   1.000  C
  C507     1.0000 0.32770  0.87220  0.33470  Biso   1.000  C
  C508     1.0000 0.82770  0.37220  0.33470  Biso   1.000  C
  C509     1.0000 0.32770  0.12780  0.83470  Biso   1.000  C
  C510     1.0000 0.82770  0.62780  0.83470  Biso   1.000  C
  C511     1.0000 0.67230  0.12780  0.66530  Biso   1.000  C
  C512     1.0000 0.17230  0.62780  0.66530  Biso   1.000  C
  H345     1.0000 0.72890  0.87180  0.17540  Biso   1.000  H
  H346     1.0000 0.22890  0.37180  0.17540  Biso   1.000  H
  H347     1.0000 0.27110  0.87180  0.32460  Biso   1.000  H
  H348     1.0000 0.77110  0.37180  0.32460  Biso   1.000  H
  H349     1.0000 0.27110  0.12820  0.82460  Biso   1.000  H
  H350     1.0000 0.77110  0.62820  0.82460  Biso   1.000  H
  H351     1.0000 0.72890  0.12820  0.67540  Biso   1.000  H
  H352     1.0000 0.22890  0.62820  0.67540  Biso   1.000  H
  C513     1.0000 0.63380  0.82550  0.15710  Biso   1.000  C
  C514     1.0000 0.13380  0.32550  0.15710  Biso   1.000  C
  C515     1.0000 0.36620  0.82550  0.34290  Biso   1.000  C
  C516     1.0000 0.86620  0.32550  0.34290  Biso   1.000  C
  C517     1.0000 0.36620  0.17450  0.84290  Biso   1.000  C
  C518     1.0000 0.86620  0.67450  0.84290  Biso   1.000  C
  C519     1.0000 0.63380  0.17450  0.65710  Biso   1.000  C
  C520     1.0000 0.13380  0.67450  0.65710  Biso   1.000  C
  H353     1.0000 0.66350  0.79470  0.16270  Biso   1.000  H
  H354     1.0000 0.16350  0.29470  0.16270  Biso   1.000  H
  H355     1.0000 0.33650  0.79470  0.33730  Biso   1.000  H
  H356     1.0000 0.83650  0.29470  0.33730  Biso   1.000  H
  H357     1.0000 0.33650  0.20530  0.83730  Biso   1.000  H
  H358     1.0000 0.83650  0.70530  0.83730  Biso   1.000  H
  H359     1.0000 0.66350  0.20530  0.66270  Biso   1.000  H
  H360     1.0000 0.16350  0.70530  0.66270  Biso   1.000  H
  C521     1.0000 0.55140  0.76450  0.04630  Biso   1.000  C
  C522     1.0000 0.05140  0.26450  0.04630  Biso   1.000  C
  C523     1.0000 0.44860  0.76450  0.45370  Biso   1.000  C
  C524     1.0000 0.94860  0.26450  0.45370  Biso   1.000  C
  C525     1.0000 0.44860  0.23550  0.95370  Biso   1.000  C
  C526     1.0000 0.94860  0.73550  0.95370  Biso   1.000  C
  C527     1.0000 0.55140  0.23550  0.54630  Biso   1.000  C
  C528     1.0000 0.05140  0.73550  0.54630  Biso   1.000  C
  H361     1.0000 0.57390  0.76130  0.06820  Biso   1.000  H
  H362     1.0000 0.07390  0.26130  0.06820  Biso   1.000  H
  H363     1.0000 0.42610  0.76130  0.43180  Biso   1.000  H
  H364     1.0000 0.92610  0.26130  0.43180  Biso   1.000  H
  H365     1.0000 0.42610  0.23870  0.93180  Biso   1.000  H
  H366     1.0000 0.92610  0.73870  0.93180  Biso   1.000  H
  H367     1.0000 0.57390  0.23870  0.56820  Biso   1.000  H
  H368     1.0000 0.07390  0.73870  0.56820  Biso   1.000  H
  C529     1.0000 0.49030  0.80180  0.03750  Biso   1.000  C
  C530     1.0000 0.99030  0.30180  0.03750  Biso   1.000  C
  C531     1.0000 0.50970  0.80180  0.46250  Biso   1.000  C
  C532     1.0000 0.00970  0.30180  0.46250  Biso   1.000  C
  C533     1.0000 0.50970  0.19820  0.96250  Biso   1.000  C
  C534     1.0000 0.00970  0.69820  0.96250  Biso   1.000  C
  C535     1.0000 0.49030  0.19820  0.53750  Biso   1.000  C
  C536     1.0000 0.99030  0.69820  0.53750  Biso   1.000  C
  H369     1.0000 0.47150  0.82270  0.05390  Biso   1.000  H
  H370     1.0000 0.97150  0.32270  0.05390  Biso   1.000  H
  H371     1.0000 0.52850  0.82270  0.44610  Biso   1.000  H
  H372     1.0000 0.02850  0.32270  0.44610  Biso   1.000  H
  H373     1.0000 0.52850  0.17730  0.94610  Biso   1.000  H
  H374     1.0000 0.02850  0.67730  0.94610  Biso   1.000  H
  H375     1.0000 0.47150  0.17730  0.55390  Biso   1.000  H
  H376     1.0000 0.97150  0.67730  0.55390  Biso   1.000  H
  C537     1.0000 0.48210  0.77800  0.98400  Biso   1.000  C
  C538     1.0000 0.98210  0.27800  0.98400  Biso   1.000  C
  C539     1.0000 0.51790  0.77800  0.51600  Biso   1.000  C
  C540     1.0000 0.01790  0.27800  0.51600  Biso   1.000  C
  C541     1.0000 0.51790  0.22200  0.01600  Biso   1.000  C
  C542     1.0000 0.01790  0.72200  0.01600  Biso   1.000  C
  C543     1.0000 0.48210  0.22200  0.48400  Biso   1.000  C
  C544     1.0000 0.98210  0.72200  0.48400  Biso   1.000  C
  H377     1.0000 0.45760  0.78140  0.96230  Biso   1.000  H
  H378     1.0000 0.95760  0.28140  0.96230  Biso   1.000  H
  H379     1.0000 0.54240  0.78140  0.53770  Biso   1.000  H
  H380     1.0000 0.04240  0.28140  0.53770  Biso   1.000  H
  H381     1.0000 0.54240  0.21860  0.03770  Biso   1.000  H
  H382     1.0000 0.04240  0.71860  0.03770  Biso   1.000  H
  H383     1.0000 0.45760  0.21860  0.46230  Biso   1.000  H
  H384     1.0000 0.95760  0.71860  0.46230  Biso   1.000  H
  C545     1.0000 0.54500  0.73930  0.99160  Biso   1.000  C
  C546     1.0000 0.04500  0.23930  0.99160  Biso   1.000  C
  C547     1.0000 0.45500  0.73930  0.50840  Biso   1.000  C
  C548     1.0000 0.95500  0.23930  0.50840  Biso   1.000  C
  C549     1.0000 0.45500  0.26070  0.00840  Biso   1.000  C
  C550     1.0000 0.95500  0.76070  0.00840  Biso   1.000  C
  C551     1.0000 0.54500  0.26070  0.49160  Biso   1.000  C
  C552     1.0000 0.04500  0.76070  0.49160  Biso   1.000  C
  H385     1.0000 0.56300  0.71870  0.97480  Biso   1.000  H
  H386     1.0000 0.06300  0.21870  0.97480  Biso   1.000  H
  H387     1.0000 0.43700  0.71870  0.52520  Biso   1.000  H
  H388     1.0000 0.93700  0.21870  0.52520  Biso   1.000  H
  H389     1.0000 0.43700  0.28130  0.02520  Biso   1.000  H
  H390     1.0000 0.93700  0.78130  0.02520  Biso   1.000  H
  H391     1.0000 0.56300  0.28130  0.47480  Biso   1.000  H
  H392     1.0000 0.06300  0.78130  0.47480  Biso   1.000  H
  C553     1.0000 0.57990  0.73170  0.02332  Biso   1.000  C
  C554     1.0000 0.07990  0.23170  0.02332  Biso   1.000  C
  C555     1.0000 0.42010  0.73170  0.47668  Biso   1.000  C
  C556     1.0000 0.92010  0.23170  0.47668  Biso   1.000  C
  C557     1.0000 0.42010  0.26830  0.97668  Biso   1.000  C
  C558     1.0000 0.92010  0.76830  0.97668  Biso   1.000  C
  C559     1.0000 0.57990  0.26830  0.52332  Biso   1.000  C
  C560     1.0000 0.07990  0.76830  0.52332  Biso   1.000  C
  C561     1.0000 0.64920  0.69270  0.03210  Biso   1.000  C
  C562     1.0000 0.14920  0.19270  0.03210  Biso   1.000  C
  C563     1.0000 0.35080  0.69270  0.46790  Biso   1.000  C
  C564     1.0000 0.85080  0.19270  0.46790  Biso   1.000  C
  C565     1.0000 0.35080  0.30730  0.96790  Biso   1.000  C
  C566     1.0000 0.85080  0.80730  0.96790  Biso   1.000  C
  C567     1.0000 0.64920  0.30730  0.53210  Biso   1.000  C
  C568     1.0000 0.14920  0.80730  0.53210  Biso   1.000  C
  C569     1.0000 0.71890  0.67990  0.01525  Biso   1.000  C
  C570     1.0000 0.21890  0.17990  0.01525  Biso   1.000  C
  C571     1.0000 0.28110  0.67990  0.48475  Biso   1.000  C
  C572     1.0000 0.78110  0.17990  0.48475  Biso   1.000  C
  C573     1.0000 0.28110  0.32010  0.98475  Biso   1.000  C
  C574     1.0000 0.78110  0.82010  0.98475  Biso   1.000  C
  C575     1.0000 0.71890  0.32010  0.51525  Biso   1.000  C
  C576     1.0000 0.21890  0.82010  0.51525  Biso   1.000  C
  H393     1.0000 0.73070  0.69250  0.99490  Biso   1.000  H
  H394     1.0000 0.23070  0.19250  0.99490  Biso   1.000  H
  H395     1.0000 0.26930  0.69250  0.50510  Biso   1.000  H
  H396     1.0000 0.76930  0.19250  0.50510  Biso   1.000  H
  H397     1.0000 0.26930  0.30750  0.00510  Biso   1.000  H
  H398     1.0000 0.76930  0.80750  0.00510  Biso   1.000  H
  H399     1.0000 0.73070  0.30750  0.49490  Biso   1.000  H
  H400     1.0000 0.23070  0.80750  0.49490  Biso   1.000  H
  C577     1.0000 0.76670  0.64470  0.03520  Biso   1.000  C
  C578     1.0000 0.26670  0.14470  0.03520  Biso   1.000  C
  C579     1.0000 0.23330  0.64470  0.46480  Biso   1.000  C
  C580     1.0000 0.73330  0.14470  0.46480  Biso   1.000  C
  C581     1.0000 0.23330  0.35530  0.96480  Biso   1.000  C
  C582     1.0000 0.73330  0.85530  0.96480  Biso   1.000  C
  C583     1.0000 0.76670  0.35530  0.53520  Biso   1.000  C
  C584     1.0000 0.26670  0.85530  0.53520  Biso   1.000  C
  C585     1.0000 0.85060  0.62110  0.03074  Biso   1.000  C
  C586     1.0000 0.35060  0.12110  0.03074  Biso   1.000  C
  C587     1.0000 0.14940  0.62110  0.46926  Biso   1.000  C
  C588     1.0000 0.64940  0.12110  0.46926  Biso   1.000  C
  C589     1.0000 0.14940  0.37890  0.96926  Biso   1.000  C
  C590     1.0000 0.64940  0.87890  0.96926  Biso   1.000  C
  C591     1.0000 0.85060  0.37890  0.53074  Biso   1.000  C
  C592     1.0000 0.35060  0.87890  0.53074  Biso   1.000  C
  C593     1.0000 0.86460  0.59740  0.00090  Biso   1.000  C
  C594     1.0000 0.36460  0.09740  0.00090  Biso   1.000  C
  C595     1.0000 0.13540  0.59740  0.49910  Biso   1.000  C
  C596     1.0000 0.63540  0.09740  0.49910  Biso   1.000  C
  C597     1.0000 0.13540  0.40260  0.99910  Biso   1.000  C
  C598     1.0000 0.63540  0.90260  0.99910  Biso   1.000  C
  C599     1.0000 0.86460  0.40260  0.50090  Biso   1.000  C
  C600     1.0000 0.36460  0.90260  0.50090  Biso   1.000  C
  H401     1.0000 0.81970  0.59440  0.98400  Biso   1.000  H
  H402     1.0000 0.31970  0.09440  0.98400  Biso   1.000  H
  H403     1.0000 0.18030  0.59440  0.51600  Biso   1.000  H
  H404     1.0000 0.68030  0.09440  0.51600  Biso   1.000  H
  H405     1.0000 0.18030  0.40560  0.01600  Biso   1.000  H
  H406     1.0000 0.68030  0.90560  0.01600  Biso   1.000  H
  H407     1.0000 0.81970  0.40560  0.48400  Biso   1.000  H
  H408     1.0000 0.31970  0.90560  0.48400  Biso   1.000  H
  C601     1.0000 0.94520  0.57850  0.99670  Biso   1.000  C
  C602     1.0000 0.44520  0.07850  0.99670  Biso   1.000  C
  C603     1.0000 0.05480  0.57850  0.50330  Biso   1.000  C
  C604     1.0000 0.55480  0.07850  0.50330  Biso   1.000  C
  C605     1.0000 0.05480  0.42150  0.00330  Biso   1.000  C
  C606     1.0000 0.55480  0.92150  0.00330  Biso   1.000  C
  C607     1.0000 0.94520  0.42150  0.49670  Biso   1.000  C
  C608     1.0000 0.44520  0.92150  0.49670  Biso   1.000  C
  H409     1.0000 0.95390  0.56420  0.97650  Biso   1.000  H
  H410     1.0000 0.45390  0.06420  0.97650  Biso   1.000  H
  H411     1.0000 0.04610  0.56420  0.52350  Biso   1.000  H
  H412     1.0000 0.54610  0.06420  0.52350  Biso   1.000  H
  H413     1.0000 0.04610  0.43580  0.02350  Biso   1.000  H
  H414     1.0000 0.54610  0.93580  0.02350  Biso   1.000  H
  H415     1.0000 0.95390  0.43580  0.47650  Biso   1.000  H
  H416     1.0000 0.45390  0.93580  0.47650  Biso   1.000  H
  C609     1.0000 0.99590  0.59770  0.04890  Biso   1.000  C
  C610     1.0000 0.49590  0.09770  0.04890  Biso   1.000  C
  C611     1.0000 0.00410  0.59770  0.45110  Biso   1.000  C
  C612     1.0000 0.50410  0.09770  0.45110  Biso   1.000  C
  C613     1.0000 0.00410  0.40230  0.95110  Biso   1.000  C
  C614     1.0000 0.50410  0.90230  0.95110  Biso   1.000  C
  C615     1.0000 0.99590  0.40230  0.54890  Biso   1.000  C
  C616     1.0000 0.49590  0.90230  0.54890  Biso   1.000  C
  H417     1.0000 0.04040  0.59640  0.06610  Biso   1.000  H
  H418     1.0000 0.54040  0.09640  0.06610  Biso   1.000  H
  H419     1.0000 0.95960  0.59640  0.43390  Biso   1.000  H
  H420     1.0000 0.45960  0.09640  0.43390  Biso   1.000  H
  H421     1.0000 0.95960  0.40360  0.93390  Biso   1.000  H
  H422     1.0000 0.45960  0.90360  0.93390  Biso   1.000  H
  H423     1.0000 0.04040  0.40360  0.56610  Biso   1.000  H
  H424     1.0000 0.54040  0.90360  0.56610  Biso   1.000  H
  C617     1.0000 0.91790  0.61860  0.05570  Biso   1.000  C
  C618     1.0000 0.41790  0.11860  0.05570  Biso   1.000  C
  C619     1.0000 0.08210  0.61860  0.44430  Biso   1.000  C
  C620     1.0000 0.58210  0.11860  0.44430  Biso   1.000  C
  C621     1.0000 0.08210  0.38140  0.94430  Biso   1.000  C
  C622     1.0000 0.58210  0.88140  0.94430  Biso   1.000  C
  C623     1.0000 0.91790  0.38140  0.55570  Biso   1.000  C
  C624     1.0000 0.41790  0.88140  0.55570  Biso   1.000  C
  H425     1.0000 0.91090  0.63070  0.07670  Biso   1.000  H
  H426     1.0000 0.41090  0.13070  0.07670  Biso   1.000  H
  H427     1.0000 0.08910  0.63070  0.42330  Biso   1.000  H
  H428     1.0000 0.58910  0.13070  0.42330  Biso   1.000  H
  H429     1.0000 0.08910  0.36930  0.92330  Biso   1.000  H
  H430     1.0000 0.58910  0.86930  0.92330  Biso   1.000  H
  H431     1.0000 0.91090  0.36930  0.57670  Biso   1.000  H
  H432     1.0000 0.41090  0.86930  0.57670  Biso   1.000  H
  B1       1.0000 0.00810  0.36880  0.25230  Biso   1.000  B
  B2       1.0000 0.50810  0.86880  0.25230  Biso   1.000  B
  B3       1.0000 0.99190  0.36880  0.24770  Biso   1.000  B
  B4       1.0000 0.49190  0.86880  0.24770  Biso   1.000  B
  B5       1.0000 0.99190  0.63120  0.74770  Biso   1.000  B
  B6       1.0000 0.49190  0.13120  0.74770  Biso   1.000  B
  B7       1.0000 0.00810  0.63120  0.75230  Biso   1.000  B
  B8       1.0000 0.50810  0.13120  0.75230  Biso   1.000  B
  B9       1.0000 0.64100  0.29980  0.08670  Biso   1.000  B
  B10      1.0000 0.14100  0.79980  0.08670  Biso   1.000  B
  B11      1.0000 0.35900  0.29980  0.41330  Biso   1.000  B
  B12      1.0000 0.85900  0.79980  0.41330  Biso   1.000  B
  B13      1.0000 0.35900  0.70020  0.91330  Biso   1.000  B
  B14      1.0000 0.85900  0.20020  0.91330  Biso   1.000  B
  B15      1.0000 0.64100  0.70020  0.58670  Biso   1.000  B
  B16      1.0000 0.14100  0.20020  0.58670  Biso   1.000  B
  F1       1.0000 0.07580  0.34390  0.26810  Biso   1.000  F
  F2       1.0000 0.57580  0.84390  0.26810  Biso   1.000  F
  F3       1.0000 0.92420  0.34390  0.23190  Biso   1.000  F
  F4       1.0000 0.42420  0.84390  0.23190  Biso   1.000  F
  F5       1.0000 0.92420  0.65610  0.73190  Biso   1.000  F
  F6       1.0000 0.42420  0.15610  0.73190  Biso   1.000  F
  F7       1.0000 0.07580  0.65610  0.76810  Biso   1.000  F
  F8       1.0000 0.57580  0.15610  0.76810  Biso   1.000  F
  F9       1.0000 0.93480  0.34320  0.25550  Biso   1.000  F
  F10      1.0000 0.43480  0.84320  0.25550  Biso   1.000  F
  F11      1.0000 0.06520  0.34320  0.24450  Biso   1.000  F
  F12      1.0000 0.56520  0.84320  0.24450  Biso   1.000  F
  F13      1.0000 0.06520  0.65680  0.74450  Biso   1.000  F
  F14      1.0000 0.56520  0.15680  0.74450  Biso   1.000  F
  F15      1.0000 0.93480  0.65680  0.75550  Biso   1.000  F
  F16      1.0000 0.43480  0.15680  0.75550  Biso   1.000  F
  F17      1.0000 0.00180  0.41700  0.26410  Biso   1.000  F
  F18      1.0000 0.50180  0.91700  0.26410  Biso   1.000  F
  F19      1.0000 0.99820  0.41700  0.23590  Biso   1.000  F
  F20      1.0000 0.49820  0.91700  0.23590  Biso   1.000  F
  F21      1.0000 0.99820  0.58300  0.73590  Biso   1.000  F
  F22      1.0000 0.49820  0.08300  0.73590  Biso   1.000  F
  F23      1.0000 0.00180  0.58300  0.76410  Biso   1.000  F
  F24      1.0000 0.50180  0.08300  0.76410  Biso   1.000  F
  F25      1.0000 0.02000  0.37330  0.22050  Biso   1.000  F
  F26      1.0000 0.52000  0.87330  0.22050  Biso   1.000  F
  F27      1.0000 0.98000  0.37330  0.27950  Biso   1.000  F
  F28      1.0000 0.48000  0.87330  0.27950  Biso   1.000  F
  F29      1.0000 0.98000  0.62670  0.77950  Biso   1.000  F
  F30      1.0000 0.48000  0.12670  0.77950  Biso   1.000  F
  F31      1.0000 0.02000  0.62670  0.72050  Biso   1.000  F
  F32      1.0000 0.52000  0.12670  0.72050  Biso   1.000  F
  F33      1.0000 0.72010  0.29730  0.10560  Biso   1.000  F
  F34      1.0000 0.22010  0.79730  0.10560  Biso   1.000  F
  F35      1.0000 0.27990  0.29730  0.39440  Biso   1.000  F
  F36      1.0000 0.77990  0.79730  0.39440  Biso   1.000  F
  F37      1.0000 0.27990  0.70270  0.89440  Biso   1.000  F
  F38      1.0000 0.77990  0.20270  0.89440  Biso   1.000  F
  F39      1.0000 0.72010  0.70270  0.60560  Biso   1.000  F
  F40      1.0000 0.22010  0.20270  0.60560  Biso   1.000  F
  F41      1.0000 0.65500  0.30320  0.05350  Biso   1.000  F
  F42      1.0000 0.15500  0.80320  0.05350  Biso   1.000  F
  F43      1.0000 0.34500  0.30320  0.44650  Biso   1.000  F
  F44      1.0000 0.84500  0.80320  0.44650  Biso   1.000  F
  F45      1.0000 0.34500  0.69680  0.94650  Biso   1.000  F
  F46      1.0000 0.84500  0.19680  0.94650  Biso   1.000  F
  F47      1.0000 0.65500  0.69680  0.55350  Biso   1.000  F
  F48      1.0000 0.15500  0.19680  0.55350  Biso   1.000  F
  F49      1.0000 0.60130  0.34550  0.09370  Biso   1.000  F
  F50      1.0000 0.10130  0.84550  0.09370  Biso   1.000  F
  F51      1.0000 0.39870  0.34550  0.40630  Biso   1.000  F
  F52      1.0000 0.89870  0.84550  0.40630  Biso   1.000  F
  F53      1.0000 0.39870  0.65450  0.90630  Biso   1.000  F
  F54      1.0000 0.89870  0.15450  0.90630  Biso   1.000  F
  F55      1.0000 0.60130  0.65450  0.59370  Biso   1.000  F
  F56      1.0000 0.10130  0.15450  0.59370  Biso   1.000  F
  F57      1.0000 0.58810  0.25780  0.09000  Biso   1.000  F
  F58      1.0000 0.08810  0.75780  0.09000  Biso   1.000  F
  F59      1.0000 0.41190  0.25780  0.41000  Biso   1.000  F
  F60      1.0000 0.91190  0.75780  0.41000  Biso   1.000  F
  F61      1.0000 0.41190  0.74220  0.91000  Biso   1.000  F
  F62      1.0000 0.91190  0.24220  0.91000  Biso   1.000  F
  F63      1.0000 0.58810  0.74220  0.59000  Biso   1.000  F
  F64      1.0000 0.08810  0.24220  0.59000  Biso   1.000  F
  F65      1.0000 0.60510  0.25060  0.08940  Biso   1.000  F
  F66      1.0000 0.10510  0.75060  0.08940  Biso   1.000  F
  F67      1.0000 0.39490  0.25060  0.41060  Biso   1.000  F
  F68      1.0000 0.89490  0.75060  0.41060  Biso   1.000  F
  F69      1.0000 0.39490  0.74940  0.91060  Biso   1.000  F
  F70      1.0000 0.89490  0.24940  0.91060  Biso   1.000  F
  F71      1.0000 0.60510  0.74940  0.58940  Biso   1.000  F
  F72      1.0000 0.10510  0.24940  0.58940  Biso   1.000  F
  F73      1.0000 0.66330  0.31650  0.11880  Biso   1.000  F
  F74      1.0000 0.16330  0.81650  0.11880  Biso   1.000  F
  F75      1.0000 0.33670  0.31650  0.38120  Biso   1.000  F
  F76      1.0000 0.83670  0.81650  0.38120  Biso   1.000  F
  F77      1.0000 0.33670  0.68350  0.88120  Biso   1.000  F
  F78      1.0000 0.83670  0.18350  0.88120  Biso   1.000  F
  F79      1.0000 0.66330  0.68350  0.61880  Biso   1.000  F
  F80      1.0000 0.16330  0.18350  0.61880  Biso   1.000  F
  F81      1.0000 0.57960  0.33310  0.07170  Biso   1.000  F
  F82      1.0000 0.07960  0.83310  0.07170  Biso   1.000  F
  F83      1.0000 0.42040  0.33310  0.42830  Biso   1.000  F
  F84      1.0000 0.92040  0.83310  0.42830  Biso   1.000  F
  F85      1.0000 0.42040  0.66690  0.92830  Biso   1.000  F
  F86      1.0000 0.92040  0.16690  0.92830  Biso   1.000  F
  F87      1.0000 0.57960  0.66690  0.57170  Biso   1.000  F
  F88      1.0000 0.07960  0.16690  0.57170  Biso   1.000  F
  F89      1.0000 0.71290  0.29620  0.07060  Biso   1.000  F
  F90      1.0000 0.21290  0.79620  0.07060  Biso   1.000  F
  F91      1.0000 0.28710  0.29620  0.42940  Biso   1.000  F
  F92      1.0000 0.78710  0.79620  0.42940  Biso   1.000  F
  F93      1.0000 0.28710  0.70380  0.92940  Biso   1.000  F
  F94      1.0000 0.78710  0.20380  0.92940  Biso   1.000  F
  F95      1.0000 0.71290  0.70380  0.57060  Biso   1.000  F
  F96      1.0000 0.21290  0.20380  0.57060  Biso   1.000  F
  N193     1.0000 0.30420  0.49810  0.10910  Biso   1.000  N
  N194     1.0000 0.80420  0.99810  0.10910  Biso   1.000  N
  N195     1.0000 0.69580  0.49810  0.39090  Biso   1.000  N
  N196     1.0000 0.19580  0.99810  0.39090  Biso   1.000  N
  N197     1.0000 0.69580  0.50190  0.89090  Biso   1.000  N
  N198     1.0000 0.19580  0.00190  0.89090  Biso   1.000  N
  N199     1.0000 0.30420  0.50190  0.60910  Biso   1.000  N
  N200     1.0000 0.80420  0.00190  0.60910  Biso   1.000  N
  C625     1.0000 0.27750  0.49910  0.13400  Biso   1.000  C
  C626     1.0000 0.77750  0.99910  0.13400  Biso   1.000  C
  C627     1.0000 0.72250  0.49910  0.36600  Biso   1.000  C
  C628     1.0000 0.22250  0.99910  0.36600  Biso   1.000  C
  C629     1.0000 0.72250  0.50090  0.86600  Biso   1.000  C
  C630     1.0000 0.22250  0.00090  0.86600  Biso   1.000  C
  C631     1.0000 0.27750  0.50090  0.63400  Biso   1.000  C
  C632     1.0000 0.77750  0.00090  0.63400  Biso   1.000  C
