data_image0
_cell_length_a       10.1652
_cell_length_b       14.6342
_cell_length_c       15.2829
_cell_angle_alpha    117.538
_cell_angle_beta     96.141
_cell_angle_gamma    104.338

_symmetry_space_group_name_H-M    "P 1"
_symmetry_int_tables_number       1

loop_
  _symmetry_equiv_pos_as_xyz
  'x, y, z'

loop_
  _atom_site_label
  _atom_site_occupancy
  _atom_site_fract_x
  _atom_site_fract_y
  _atom_site_fract_z
  _atom_site_thermal_displace_type
  _atom_site_B_iso_or_equiv
  _atom_site_type_symbol
  Cu1      1.0000 0.06010  0.42453  0.46631  Biso   1.000  Cu
  Cu2      1.0000 0.93990  0.57547  0.53369  Biso   1.000  Cu
  Cu3      1.0000 0.05841  0.38349  0.25476  Biso   1.000  Cu
  Cu4      1.0000 0.94159  0.61651  0.74524  Biso   1.000  Cu
  Cu5      1.0000 0.26431  0.27354  0.21815  Biso   1.000  Cu
  Cu6      1.0000 0.73569  0.72646  0.78185  Biso   1.000  Cu
  Cu7      1.0000 0.32794  0.48919  0.24570  Biso   1.000  Cu
  Cu8      1.0000 0.67206  0.51081  0.75430  Biso   1.000  Cu
  Cu9      1.0000 0.15207  0.31448  0.08543  Biso   1.000  Cu
  Cu10     1.0000 0.84793  0.68552  0.91457  Biso   1.000  Cu
  I1       1.0000 0.29036  0.46144  0.40899  Biso   1.000  I
  I2       1.0000 0.70964  0.53856  0.59101  Biso   1.000  I
  I3       1.0000 0.84529  0.41237  0.33542  Biso   1.000  I
  I4       1.0000 0.15471  0.58763  0.66458  Biso   1.000  I
  I5       1.0000 0.99483  0.16719  0.12842  Biso   1.000  I
  I6       1.0000 0.00517  0.83281  0.87158  Biso   1.000  I
  I7       1.0000 0.10266  0.50209  0.15727  Biso   1.000  I
  I8       1.0000 0.89734  0.49791  0.84273  Biso   1.000  I
  I9       1.0000 0.43175  0.33781  0.12593  Biso   1.000  I
  I10      1.0000 0.56825  0.66219  0.87407  Biso   1.000  I
  N1       1.0000 0.95770  0.29050  0.47350  Biso   1.000  N
  N2       1.0000 0.04230  0.70950  0.52650  Biso   1.000  N
  N3       1.0000 0.34340  0.18920  0.27300  Biso   1.000  N
  N4       1.0000 0.65660  0.81080  0.72700  Biso   1.000  N
  N5       1.0000 0.89670  0.76630  0.06830  Biso   1.000  N
  N6       1.0000 0.10330  0.23370  0.93170  Biso   1.000  N
  N7       1.0000 0.50090  0.62720  0.31180  Biso   1.000  N
  N8       1.0000 0.49910  0.37280  0.68820  Biso   1.000  N
  C1       1.0000 0.87110  0.19960  0.38940  Biso   1.000  C
  C2       1.0000 0.12890  0.80040  0.61060  Biso   1.000  C
  H1       1.0000 0.88760  0.18630  0.32660  Biso   1.000  H
  H2       1.0000 0.11240  0.81370  0.67340  Biso   1.000  H
  C3       1.0000 0.76020  0.12540  0.39020  Biso   1.000  C
  C4       1.0000 0.23980  0.87460  0.60980  Biso   1.000  C
  H3       1.0000 0.70260  0.06410  0.32930  Biso   1.000  H
  H4       1.0000 0.29740  0.93590  0.67070  Biso   1.000  H
  C5       1.0000 0.73390  0.14290  0.48430  Biso   1.000  C
  C6       1.0000 0.26610  0.85710  0.51570  Biso   1.000  C
  C7       1.0000 0.82530  0.23400  0.57030  Biso   1.000  C
  C8       1.0000 0.17470  0.76600  0.42970  Biso   1.000  C
  H5       1.0000 0.81280  0.24810  0.63420  Biso   1.000  H
  H6       1.0000 0.18720  0.75190  0.36580  Biso   1.000  H
  C9       1.0000 0.93560  0.30520  0.56350  Biso   1.000  C
  C10      1.0000 0.06440  0.69480  0.43650  Biso   1.000  C
  H7       1.0000 0.99690  0.36560  0.62340  Biso   1.000  H
  H8       1.0000 0.00310  0.63440  0.37660  Biso   1.000  H
  C11      1.0000 0.61050  0.07110  0.49110  Biso   1.000  C
  C12      1.0000 0.38950  0.92890  0.50890  Biso   1.000  C
  C13      1.0000 0.63430  0.03340  0.55760  Biso   1.000  C
  C14      1.0000 0.36570  0.96660  0.44240  Biso   1.000  C
  H9       1.0000 0.72460  0.05770  0.59790  Biso   1.000  H
  H10      1.0000 0.27540  0.94230  0.40210  Biso   1.000  H
  C15      1.0000 0.47500  0.04030  0.43500  Biso   1.000  C
  C16      1.0000 0.52500  0.95970  0.56500  Biso   1.000  C
  C17      1.0000 0.43600  0.08960  0.37300  Biso   1.000  C
  C18      1.0000 0.56400  0.91040  0.62700  Biso   1.000  C
  C19      1.0000 0.49510  0.20000  0.40990  Biso   1.000  C
  C20      1.0000 0.50490  0.80000  0.59010  Biso   1.000  C
  H11      1.0000 0.56750  0.24310  0.46950  Biso   1.000  H
  H12      1.0000 0.43250  0.75690  0.53050  Biso   1.000  H
  C21      1.0000 0.44700  0.24740  0.35850  Biso   1.000  C
  C22      1.0000 0.55300  0.75260  0.64150  Biso   1.000  C
  H13      1.0000 0.48830  0.32210  0.38450  Biso   1.000  H
  H14      1.0000 0.51170  0.67790  0.61550  Biso   1.000  H
  C23      1.0000 0.29100  0.08260  0.23510  Biso   1.000  C
  C24      1.0000 0.70900  0.91740  0.76490  Biso   1.000  C
  H15      1.0000 0.22190  0.04070  0.17360  Biso   1.000  H
  H16      1.0000 0.77810  0.95930  0.82640  Biso   1.000  H
  C25      1.0000 0.33350  0.03080  0.28190  Biso   1.000  C
  C26      1.0000 0.66650  0.96920  0.71810  Biso   1.000  C
  H17      1.0000 0.29300  0.95540  0.25200  Biso   1.000  H
  H18      1.0000 0.70700  0.04460  0.74800  Biso   1.000  H
  C27      1.0000 0.91100  0.87100  0.12040  Biso   1.000  C
  C28      1.0000 0.08900  0.12900  0.87960  Biso   1.000  C
  H19      1.0000 0.90910  0.90730  0.08410  Biso   1.000  H
  H20      1.0000 0.09090  0.09270  0.91590  Biso   1.000  H
  C29      1.0000 0.92850  0.93020  0.22340  Biso   1.000  C
  C30      1.0000 0.07150  0.06980  0.77660  Biso   1.000  C
  H21      1.0000 0.93760  0.00400  0.25530  Biso   1.000  H
  H22      1.0000 0.06240  0.99600  0.74470  Biso   1.000  H
  C31      1.0000 0.93230  0.87840  0.27920  Biso   1.000  C
  C32      1.0000 0.06770  0.12160  0.72080  Biso   1.000  C
  C33      1.0000 0.91560  0.76830  0.22680  Biso   1.000  C
  C34      1.0000 0.08440  0.23170  0.77320  Biso   1.000  C
  H23      1.0000 0.91520  0.72980  0.26110  Biso   1.000  H
  H24      1.0000 0.08480  0.27020  0.73890  Biso   1.000  H
  C35      1.0000 0.89960  0.71660  0.12240  Biso   1.000  C
  C36      1.0000 0.10040  0.28340  0.87760  Biso   1.000  C
  H25      1.0000 0.89040  0.64280  0.08790  Biso   1.000  H
  H26      1.0000 0.10960  0.35720  0.91210  Biso   1.000  H
  C37      1.0000 0.95960  0.94150  0.39390  Biso   1.000  C
  C38      1.0000 0.04040  0.05850  0.60610  Biso   1.000  C
  C39      1.0000 0.07090  0.03850  0.44660  Biso   1.000  C
  C40      1.0000 0.92910  0.96150  0.55340  Biso   1.000  C
  H27      1.0000 0.11790  0.06550  0.40990  Biso   1.000  H
  H28      1.0000 0.88210  0.93450  0.59010  Biso   1.000  H
  C41      1.0000 0.88450  0.90280  0.44790  Biso   1.000  C
  C42      1.0000 0.11550  0.09720  0.55210  Biso   1.000  C
  C43      1.0000 0.75250  0.80400  0.39700  Biso   1.000  C
  C44      1.0000 0.24750  0.19600  0.60300  Biso   1.000  C
  C45      1.0000 0.73310  0.72420  0.42370  Biso   1.000  C
  C46      1.0000 0.26690  0.27580  0.57630  Biso   1.000  C
  H29      1.0000 0.80350  0.72850  0.47120  Biso   1.000  H
  H30      1.0000 0.19650  0.27150  0.52880  Biso   1.000  H
  C47      1.0000 0.60790  0.63810  0.37900  Biso   1.000  C
  C48      1.0000 0.39210  0.36190  0.62100  Biso   1.000  C
  H31      1.0000 0.59720  0.58430  0.39670  Biso   1.000  H
  H32      1.0000 0.40280  0.41570  0.60330  Biso   1.000  H
  C49      1.0000 0.52080  0.70500  0.28950  Biso   1.000  C
  C50      1.0000 0.47920  0.29500  0.71050  Biso   1.000  C
  H33      1.0000 0.44710  0.70070  0.24440  Biso   1.000  H
  H34      1.0000 0.55290  0.29930  0.75560  Biso   1.000  H
  C51      1.0000 0.64190  0.79200  0.32750  Biso   1.000  C
  C52      1.0000 0.35810  0.20800  0.67250  Biso   1.000  C
  H35      1.0000 0.64990  0.84300  0.30650  Biso   1.000  H
  H36      1.0000 0.35010  0.15700  0.69350  Biso   1.000  H
  O1       1.0000 0.48100  0.09670  0.03600  Biso   1.000  O
  O2       1.0000 0.51900  0.90330  0.96400  Biso   1.000  O
  O3       1.0000 0.62100  0.05000  0.04500  Biso   1.000  O
  O4       1.0000 0.37900  0.95000  0.95500  Biso   1.000  O
