data_image0
_cell_length_a       24.258
_cell_length_b       9.4877
_cell_length_c       16.473
_cell_angle_alpha    90
_cell_angle_beta     118.79
_cell_angle_gamma    90

_symmetry_space_group_name_H-M    "P 1"
_symmetry_int_tables_number       1

loop_
  _symmetry_equiv_pos_as_xyz
  'x, y, z'

loop_
  _atom_site_label
  _atom_site_occupancy
  _atom_site_fract_x
  _atom_site_fract_y
  _atom_site_fract_z
  _atom_site_thermal_displace_type
  _atom_site_B_iso_or_equiv
  _atom_site_type_symbol
  Cu1      1.0000 0.04272  0.17662  0.03882  Biso   1.000  Cu
  Cu2      1.0000 0.95728  0.17662  0.46118  Biso   1.000  Cu
  Cu3      1.0000 0.54272  0.67662  0.03882  Biso   1.000  Cu
  Cu4      1.0000 0.45728  0.67662  0.46118  Biso   1.000  Cu
  Cu5      1.0000 0.95728  0.82338  0.96118  Biso   1.000  Cu
  Cu6      1.0000 0.04272  0.82338  0.53882  Biso   1.000  Cu
  Cu7      1.0000 0.45728  0.32338  0.96118  Biso   1.000  Cu
  Cu8      1.0000 0.54272  0.32338  0.53882  Biso   1.000  Cu
  Cu9      1.0000 0.04255  0.38483  0.37785  Biso   1.000  Cu
  Cu10     1.0000 0.95745  0.38483  0.12215  Biso   1.000  Cu
  Cu11     1.0000 0.54255  0.88483  0.37785  Biso   1.000  Cu
  Cu12     1.0000 0.45745  0.88483  0.12215  Biso   1.000  Cu
  Cu13     1.0000 0.95745  0.61517  0.62215  Biso   1.000  Cu
  Cu14     1.0000 0.04255  0.61517  0.87785  Biso   1.000  Cu
  Cu15     1.0000 0.45745  0.11517  0.62215  Biso   1.000  Cu
  Cu16     1.0000 0.54255  0.11517  0.87785  Biso   1.000  Cu
  N1       1.0000 0.13703  0.01860  0.53000  Biso   1.000  N
  N2       1.0000 0.86297  0.01860  0.97000  Biso   1.000  N
  N3       1.0000 0.63703  0.51860  0.53000  Biso   1.000  N
  N4       1.0000 0.36297  0.51860  0.97000  Biso   1.000  N
  N5       1.0000 0.86297  0.98140  0.47000  Biso   1.000  N
  N6       1.0000 0.13703  0.98140  0.03000  Biso   1.000  N
  N7       1.0000 0.36297  0.48140  0.47000  Biso   1.000  N
  N8       1.0000 0.63703  0.48140  0.03000  Biso   1.000  N
  N9       1.0000 0.07927  0.00660  0.52160  Biso   1.000  N
  N10      1.0000 0.92073  0.00660  0.97840  Biso   1.000  N
  N11      1.0000 0.57927  0.50660  0.52160  Biso   1.000  N
  N12      1.0000 0.42073  0.50660  0.97840  Biso   1.000  N
  N13      1.0000 0.92073  0.99340  0.47840  Biso   1.000  N
  N14      1.0000 0.07927  0.99340  0.02160  Biso   1.000  N
  N15      1.0000 0.42073  0.49340  0.47840  Biso   1.000  N
  N16      1.0000 0.57927  0.49340  0.02160  Biso   1.000  N
  N17      1.0000 0.04633  0.11980  0.48290  Biso   1.000  N
  N18      1.0000 0.95367  0.11980  0.01710  Biso   1.000  N
  N19      1.0000 0.54633  0.61980  0.48290  Biso   1.000  N
  N20      1.0000 0.45367  0.61980  0.01710  Biso   1.000  N
  N21      1.0000 0.95367  0.88020  0.51710  Biso   1.000  N
  N22      1.0000 0.04633  0.88020  0.98290  Biso   1.000  N
  N23      1.0000 0.45367  0.38020  0.51710  Biso   1.000  N
  N24      1.0000 0.54633  0.38020  0.98290  Biso   1.000  N
  N25      1.0000 0.08149  0.21000  0.46400  Biso   1.000  N
  N26      1.0000 0.91851  0.21000  0.03600  Biso   1.000  N
  N27      1.0000 0.58149  0.71000  0.46400  Biso   1.000  N
  N28      1.0000 0.41851  0.71000  0.03600  Biso   1.000  N
  N29      1.0000 0.91851  0.79000  0.53600  Biso   1.000  N
  N30      1.0000 0.08149  0.79000  0.96400  Biso   1.000  N
  N31      1.0000 0.41851  0.29000  0.53600  Biso   1.000  N
  N32      1.0000 0.58149  0.29000  0.96400  Biso   1.000  N
  N33      1.0000 0.08264  0.31830  0.29880  Biso   1.000  N
  N34      1.0000 0.91736  0.31830  0.20120  Biso   1.000  N
  N35      1.0000 0.58264  0.81830  0.29880  Biso   1.000  N
  N36      1.0000 0.41736  0.81830  0.20120  Biso   1.000  N
  N37      1.0000 0.91736  0.68170  0.70120  Biso   1.000  N
  N38      1.0000 0.08264  0.68170  0.79880  Biso   1.000  N
  N39      1.0000 0.41736  0.18170  0.70120  Biso   1.000  N
  N40      1.0000 0.58264  0.18170  0.79880  Biso   1.000  N
  N41      1.0000 0.04816  0.30150  0.20690  Biso   1.000  N
  N42      1.0000 0.95184  0.30150  0.29310  Biso   1.000  N
  N43      1.0000 0.54816  0.80150  0.20690  Biso   1.000  N
  N44      1.0000 0.45184  0.80150  0.29310  Biso   1.000  N
  N45      1.0000 0.95184  0.69850  0.79310  Biso   1.000  N
  N46      1.0000 0.04816  0.69850  0.70690  Biso   1.000  N
  N47      1.0000 0.45184  0.19850  0.79310  Biso   1.000  N
  N48      1.0000 0.54816  0.19850  0.70690  Biso   1.000  N
  N49      1.0000 0.08206  0.23660  0.17640  Biso   1.000  N
  N50      1.0000 0.91794  0.23660  0.32360  Biso   1.000  N
  N51      1.0000 0.58206  0.73660  0.17640  Biso   1.000  N
  N52      1.0000 0.41794  0.73660  0.32360  Biso   1.000  N
  N53      1.0000 0.91794  0.76340  0.82360  Biso   1.000  N
  N54      1.0000 0.08206  0.76340  0.67640  Biso   1.000  N
  N55      1.0000 0.41794  0.26340  0.82360  Biso   1.000  N
  N56      1.0000 0.58206  0.26340  0.67640  Biso   1.000  N
  N57      1.0000 0.13992  0.21090  0.24760  Biso   1.000  N
  N58      1.0000 0.86008  0.21090  0.25240  Biso   1.000  N
  N59      1.0000 0.63992  0.71090  0.24760  Biso   1.000  N
  N60      1.0000 0.36008  0.71090  0.25240  Biso   1.000  N
  N61      1.0000 0.86008  0.78910  0.75240  Biso   1.000  N
  N62      1.0000 0.13992  0.78910  0.74760  Biso   1.000  N
  N63      1.0000 0.36008  0.28910  0.75240  Biso   1.000  N
  N64      1.0000 0.63992  0.28910  0.74760  Biso   1.000  N
  N65      1.0000 0.04400  0.43450  0.92880  Biso   1.000  N
  N66      1.0000 0.95600  0.43450  0.57120  Biso   1.000  N
  N67      1.0000 0.54400  0.93450  0.92880  Biso   1.000  N
  N68      1.0000 0.45600  0.93450  0.57120  Biso   1.000  N
  N69      1.0000 0.95600  0.56550  0.07120  Biso   1.000  N
  N70      1.0000 0.04400  0.56550  0.42880  Biso   1.000  N
  N71      1.0000 0.45600  0.06550  0.07120  Biso   1.000  N
  N72      1.0000 0.54400  0.06550  0.42880  Biso   1.000  N
  C1       1.0000 0.25090  0.30280  0.42300  Biso   1.000  C
  C2       1.0000 0.74910  0.30280  0.07700  Biso   1.000  C
  C3       1.0000 0.75090  0.80280  0.42300  Biso   1.000  C
  C4       1.0000 0.24910  0.80280  0.07700  Biso   1.000  C
  C5       1.0000 0.74910  0.69720  0.57700  Biso   1.000  C
  C6       1.0000 0.25090  0.69720  0.92300  Biso   1.000  C
  C7       1.0000 0.24910  0.19720  0.57700  Biso   1.000  C
  C8       1.0000 0.75090  0.19720  0.92300  Biso   1.000  C
  H1       1.0000 0.25140  0.33900  0.37090  Biso   1.000  H
  H2       1.0000 0.74860  0.33900  0.12910  Biso   1.000  H
  H3       1.0000 0.75140  0.83900  0.37090  Biso   1.000  H
  H4       1.0000 0.24860  0.83900  0.12910  Biso   1.000  H
  H5       1.0000 0.74860  0.66100  0.62910  Biso   1.000  H
  H6       1.0000 0.25140  0.66100  0.87090  Biso   1.000  H
  H7       1.0000 0.24860  0.16100  0.62910  Biso   1.000  H
  H8       1.0000 0.75140  0.16100  0.87090  Biso   1.000  H
  C9       1.0000 0.19370  0.25660  0.41470  Biso   1.000  C
  C10      1.0000 0.80630  0.25660  0.08530  Biso   1.000  C
  C11      1.0000 0.69370  0.75660  0.41470  Biso   1.000  C
  C12      1.0000 0.30630  0.75660  0.08530  Biso   1.000  C
  C13      1.0000 0.80630  0.74340  0.58530  Biso   1.000  C
  C14      1.0000 0.19370  0.74340  0.91470  Biso   1.000  C
  C15      1.0000 0.30630  0.24340  0.58530  Biso   1.000  C
  C16      1.0000 0.69370  0.24340  0.91470  Biso   1.000  C
  C17      1.0000 0.19280  0.20310  0.49380  Biso   1.000  C
  C18      1.0000 0.80720  0.20310  0.00620  Biso   1.000  C
  C19      1.0000 0.69280  0.70310  0.49380  Biso   1.000  C
  C20      1.0000 0.30720  0.70310  0.00620  Biso   1.000  C
  C21      1.0000 0.80720  0.79690  0.50620  Biso   1.000  C
  C22      1.0000 0.19280  0.79690  0.99380  Biso   1.000  C
  C23      1.0000 0.30720  0.29690  0.50620  Biso   1.000  C
  C24      1.0000 0.69280  0.29690  0.99380  Biso   1.000  C
  C25      1.0000 0.13670  0.14500  0.49340  Biso   1.000  C
  C26      1.0000 0.86330  0.14500  0.00660  Biso   1.000  C
  C27      1.0000 0.63670  0.64500  0.49340  Biso   1.000  C
  C28      1.0000 0.36330  0.64500  0.00660  Biso   1.000  C
  C29      1.0000 0.86330  0.85500  0.50660  Biso   1.000  C
  C30      1.0000 0.13670  0.85500  0.99340  Biso   1.000  C
  C31      1.0000 0.36330  0.35500  0.50660  Biso   1.000  C
  C32      1.0000 0.63670  0.35500  0.99340  Biso   1.000  C
  C33      1.0000 0.13790  0.26080  0.32160  Biso   1.000  C
  C34      1.0000 0.86210  0.26080  0.17840  Biso   1.000  C
  C35      1.0000 0.63790  0.76080  0.32160  Biso   1.000  C
  C36      1.0000 0.36210  0.76080  0.17840  Biso   1.000  C
  C37      1.0000 0.86210  0.73920  0.67840  Biso   1.000  C
  C38      1.0000 0.13790  0.73920  0.82160  Biso   1.000  C
  C39      1.0000 0.36210  0.23920  0.67840  Biso   1.000  C
  C40      1.0000 0.63790  0.23920  0.82160  Biso   1.000  C
  C41      1.0000 0.04360  0.33190  0.96370  Biso   1.000  C
  C42      1.0000 0.95640  0.33190  0.53630  Biso   1.000  C
  C43      1.0000 0.54360  0.83190  0.96370  Biso   1.000  C
  C44      1.0000 0.45640  0.83190  0.53630  Biso   1.000  C
  C45      1.0000 0.95640  0.66810  0.03630  Biso   1.000  C
  C46      1.0000 0.04360  0.66810  0.46370  Biso   1.000  C
  C47      1.0000 0.45640  0.16810  0.03630  Biso   1.000  C
  C48      1.0000 0.54360  0.16810  0.46370  Biso   1.000  C
  O1       1.0000 0.23110  0.87590  0.68980  Biso   1.000  O
  O2       1.0000 0.76890  0.87590  0.81020  Biso   1.000  O
  O3       1.0000 0.73110  0.37590  0.68980  Biso   1.000  O
  O4       1.0000 0.26890  0.37590  0.81020  Biso   1.000  O
  O5       1.0000 0.76890  0.12410  0.31020  Biso   1.000  O
  O6       1.0000 0.23110  0.12410  0.18980  Biso   1.000  O
  O7       1.0000 0.26890  0.62410  0.31020  Biso   1.000  O
  O8       1.0000 0.73110  0.62410  0.18980  Biso   1.000  O
  O9       1.0000 0.38160  0.91600  0.84890  Biso   1.000  O
  O10      1.0000 0.61840  0.91600  0.65110  Biso   1.000  O
  O11      1.0000 0.88160  0.41600  0.84890  Biso   1.000  O
  O12      1.0000 0.11840  0.41600  0.65110  Biso   1.000  O
  O13      1.0000 0.61840  0.08400  0.15110  Biso   1.000  O
  O14      1.0000 0.38160  0.08400  0.34890  Biso   1.000  O
  O15      1.0000 0.11840  0.58400  0.15110  Biso   1.000  O
  O16      1.0000 0.88160  0.58400  0.34890  Biso   1.000  O
  O17      1.0000 0.41200  0.68700  0.73600  Biso   1.000  O
  O18      1.0000 0.58800  0.68700  0.76400  Biso   1.000  O
  O19      1.0000 0.91200  0.18700  0.73600  Biso   1.000  O
  O20      1.0000 0.08800  0.18700  0.76400  Biso   1.000  O
  O21      1.0000 0.58800  0.31300  0.26400  Biso   1.000  O
  O22      1.0000 0.41200  0.31300  0.23600  Biso   1.000  O
  O23      1.0000 0.08800  0.81300  0.26400  Biso   1.000  O
  O24      1.0000 0.91200  0.81300  0.23600  Biso   1.000  O
