data_image0
_cell_length_a       24.561
_cell_length_b       20.118
_cell_length_c       8.0845
_cell_angle_alpha    90
_cell_angle_beta     106.176
_cell_angle_gamma    90

_symmetry_space_group_name_H-M    "P 1"
_symmetry_int_tables_number       1

loop_
  _symmetry_equiv_pos_as_xyz
  'x, y, z'

loop_
  _atom_site_label
  _atom_site_occupancy
  _atom_site_fract_x
  _atom_site_fract_y
  _atom_site_fract_z
  _atom_site_thermal_displace_type
  _atom_site_B_iso_or_equiv
  _atom_site_type_symbol
  Cu1      1.0000 0.05033  0.41261  0.66673  Biso   1.000  Cu
  Cu2      1.0000 0.55033  0.91261  0.66673  Biso   1.000  Cu
  Cu3      1.0000 0.94967  0.41261  0.83327  Biso   1.000  Cu
  Cu4      1.0000 0.44967  0.91261  0.83327  Biso   1.000  Cu
  Cu5      1.0000 0.94967  0.58739  0.33327  Biso   1.000  Cu
  Cu6      1.0000 0.44967  0.08739  0.33327  Biso   1.000  Cu
  Cu7      1.0000 0.05033  0.58739  0.16673  Biso   1.000  Cu
  Cu8      1.0000 0.55033  0.08739  0.16673  Biso   1.000  Cu
  Cu9      1.0000 0.00000  0.55415  0.75000  Biso   1.000  Cu
  Cu10     1.0000 0.50000  0.05415  0.75000  Biso   1.000  Cu
  Cu11     1.0000 0.00000  0.44585  0.25000  Biso   1.000  Cu
  Cu12     1.0000 0.50000  0.94585  0.25000  Biso   1.000  Cu
  Cu13     1.0000 0.31566  0.68250  0.22036  Biso   1.000  Cu
  Cu14     1.0000 0.81566  0.18250  0.22036  Biso   1.000  Cu
  Cu15     1.0000 0.68434  0.68250  0.27964  Biso   1.000  Cu
  Cu16     1.0000 0.18434  0.18250  0.27964  Biso   1.000  Cu
  Cu17     1.0000 0.68434  0.31750  0.77964  Biso   1.000  Cu
  Cu18     1.0000 0.18434  0.81750  0.77964  Biso   1.000  Cu
  Cu19     1.0000 0.31566  0.31750  0.72036  Biso   1.000  Cu
  Cu20     1.0000 0.81566  0.81750  0.72036  Biso   1.000  Cu
  Cu21     1.0000 0.00000  0.91049  0.75000  Biso   1.000  Cu
  Cu22     1.0000 0.50000  0.41049  0.75000  Biso   1.000  Cu
  Cu23     1.0000 0.00000  0.08951  0.25000  Biso   1.000  Cu
  Cu24     1.0000 0.50000  0.58951  0.25000  Biso   1.000  Cu
  N1       1.0000 0.02036  0.33132  0.70770  Biso   1.000  N
  N2       1.0000 0.52036  0.83132  0.70770  Biso   1.000  N
  N3       1.0000 0.97964  0.33132  0.79230  Biso   1.000  N
  N4       1.0000 0.47964  0.83132  0.79230  Biso   1.000  N
  N5       1.0000 0.97964  0.66868  0.29230  Biso   1.000  N
  N6       1.0000 0.47964  0.16868  0.29230  Biso   1.000  N
  N7       1.0000 0.02036  0.66868  0.20770  Biso   1.000  N
  N8       1.0000 0.52036  0.16868  0.20770  Biso   1.000  N
  N9       1.0000 0.08526  0.49170  0.63820  Biso   1.000  N
  N10      1.0000 0.58526  0.99170  0.63820  Biso   1.000  N
  N11      1.0000 0.91474  0.49170  0.86180  Biso   1.000  N
  N12      1.0000 0.41474  0.99170  0.86180  Biso   1.000  N
  N13      1.0000 0.91474  0.50830  0.36180  Biso   1.000  N
  N14      1.0000 0.41474  0.00830  0.36180  Biso   1.000  N
  N15      1.0000 0.08526  0.50830  0.13820  Biso   1.000  N
  N16      1.0000 0.58526  0.00830  0.13820  Biso   1.000  N
  N17      1.0000 0.06304  0.55259  0.66550  Biso   1.000  N
  N18      1.0000 0.56304  0.05259  0.66550  Biso   1.000  N
  N19      1.0000 0.93696  0.55259  0.83450  Biso   1.000  N
  N20      1.0000 0.43696  0.05259  0.83450  Biso   1.000  N
  N21      1.0000 0.93696  0.44741  0.33450  Biso   1.000  N
  N22      1.0000 0.43696  0.94741  0.33450  Biso   1.000  N
  N23      1.0000 0.06304  0.44741  0.16550  Biso   1.000  N
  N24      1.0000 0.56304  0.94741  0.16550  Biso   1.000  N
  N25      1.0000 0.00000  0.01280  0.75000  Biso   1.000  N
  N26      1.0000 0.50000  0.51280  0.75000  Biso   1.000  N
  N27      1.0000 0.00000  0.98720  0.25000  Biso   1.000  N
  N28      1.0000 0.50000  0.48720  0.25000  Biso   1.000  N
  N29      1.0000 0.27004  0.65980  0.39240  Biso   1.000  N
  N30      1.0000 0.77004  0.15980  0.39240  Biso   1.000  N
  N31      1.0000 0.72996  0.65980  0.10760  Biso   1.000  N
  N32      1.0000 0.22996  0.15980  0.10760  Biso   1.000  N
  N33      1.0000 0.72996  0.34020  0.60760  Biso   1.000  N
  N34      1.0000 0.22996  0.84020  0.60760  Biso   1.000  N
  N35      1.0000 0.27004  0.34020  0.89240  Biso   1.000  N
  N36      1.0000 0.77004  0.84020  0.89240  Biso   1.000  N
  N37      1.0000 0.38690  0.64260  0.25630  Biso   1.000  N
  N38      1.0000 0.88690  0.14260  0.25630  Biso   1.000  N
  N39      1.0000 0.61310  0.64260  0.24370  Biso   1.000  N
  N40      1.0000 0.11310  0.14260  0.24370  Biso   1.000  N
  N41      1.0000 0.61310  0.35740  0.74370  Biso   1.000  N
  N42      1.0000 0.11310  0.85740  0.74370  Biso   1.000  N
  N43      1.0000 0.38690  0.35740  0.75630  Biso   1.000  N
  N44      1.0000 0.88690  0.85740  0.75630  Biso   1.000  N
  C1       1.0000 0.26670  0.73570  0.05400  Biso   1.000  C
  C2       1.0000 0.76670  0.23570  0.05400  Biso   1.000  C
  C3       1.0000 0.73330  0.73570  0.44600  Biso   1.000  C
  C4       1.0000 0.23330  0.23570  0.44600  Biso   1.000  C
  C5       1.0000 0.73330  0.26430  0.94600  Biso   1.000  C
  C6       1.0000 0.23330  0.76430  0.94600  Biso   1.000  C
  C7       1.0000 0.26670  0.26430  0.55400  Biso   1.000  C
  C8       1.0000 0.76670  0.76430  0.55400  Biso   1.000  C
  C9       1.0000 0.07400  0.25320  0.57990  Biso   1.000  C
  C10      1.0000 0.57400  0.75320  0.57990  Biso   1.000  C
  C11      1.0000 0.92600  0.25320  0.92010  Biso   1.000  C
  C12      1.0000 0.42600  0.75320  0.92010  Biso   1.000  C
  C13      1.0000 0.92600  0.74680  0.42010  Biso   1.000  C
  C14      1.0000 0.42600  0.24680  0.42010  Biso   1.000  C
  C15      1.0000 0.07400  0.74680  0.07990  Biso   1.000  C
  C16      1.0000 0.57400  0.24680  0.07990  Biso   1.000  C
  H1       1.0000 0.08580  0.29390  0.53850  Biso   1.000  H
  H2       1.0000 0.58580  0.79390  0.53850  Biso   1.000  H
  H3       1.0000 0.91420  0.29390  0.96150  Biso   1.000  H
  H4       1.0000 0.41420  0.79390  0.96150  Biso   1.000  H
  H5       1.0000 0.91420  0.70610  0.46150  Biso   1.000  H
  H6       1.0000 0.41420  0.20610  0.46150  Biso   1.000  H
  H7       1.0000 0.08580  0.70610  0.03850  Biso   1.000  H
  H8       1.0000 0.58580  0.20610  0.03850  Biso   1.000  H
  H9       1.0000 0.05620  0.22520  0.48390  Biso   1.000  H
  H10      1.0000 0.55620  0.72520  0.48390  Biso   1.000  H
  H11      1.0000 0.94380  0.22520  0.01610  Biso   1.000  H
  H12      1.0000 0.44380  0.72520  0.01610  Biso   1.000  H
  H13      1.0000 0.94380  0.77480  0.51610  Biso   1.000  H
  H14      1.0000 0.44380  0.27480  0.51610  Biso   1.000  H
  H15      1.0000 0.05620  0.77480  0.98390  Biso   1.000  H
  H16      1.0000 0.55620  0.27480  0.98390  Biso   1.000  H
  H17      1.0000 0.10640  0.23080  0.65270  Biso   1.000  H
  H18      1.0000 0.60640  0.73080  0.65270  Biso   1.000  H
  H19      1.0000 0.89360  0.23080  0.84730  Biso   1.000  H
  H20      1.0000 0.39360  0.73080  0.84730  Biso   1.000  H
  H21      1.0000 0.89360  0.76920  0.34730  Biso   1.000  H
  H22      1.0000 0.39360  0.26920  0.34730  Biso   1.000  H
  H23      1.0000 0.10640  0.76920  0.15270  Biso   1.000  H
  H24      1.0000 0.60640  0.26920  0.15270  Biso   1.000  H
  C17      1.0000 0.03310  0.26820  0.67950  Biso   1.000  C
  C18      1.0000 0.53310  0.76820  0.67950  Biso   1.000  C
  C19      1.0000 0.96690  0.26820  0.82050  Biso   1.000  C
  C20      1.0000 0.46690  0.76820  0.82050  Biso   1.000  C
  C21      1.0000 0.96690  0.73180  0.32050  Biso   1.000  C
  C22      1.0000 0.46690  0.23180  0.32050  Biso   1.000  C
  C23      1.0000 0.03310  0.73180  0.17950  Biso   1.000  C
  C24      1.0000 0.53310  0.23180  0.17950  Biso   1.000  C
  C25      1.0000 0.00000  0.22580  0.75000  Biso   1.000  C
  C26      1.0000 0.50000  0.72580  0.75000  Biso   1.000  C
  C27      1.0000 0.00000  0.77420  0.25000  Biso   1.000  C
  C28      1.0000 0.50000  0.27420  0.25000  Biso   1.000  C
  C29      1.0000 0.00000  0.15180  0.75000  Biso   1.000  C
  C30      1.0000 0.50000  0.65180  0.75000  Biso   1.000  C
  C31      1.0000 0.00000  0.84820  0.25000  Biso   1.000  C
  C32      1.0000 0.50000  0.34820  0.25000  Biso   1.000  C
  C33      1.0000 0.04540  0.11640  0.73690  Biso   1.000  C
  C34      1.0000 0.54540  0.61640  0.73690  Biso   1.000  C
  C35      1.0000 0.95460  0.11640  0.76310  Biso   1.000  C
  C36      1.0000 0.45460  0.61640  0.76310  Biso   1.000  C
  C37      1.0000 0.95460  0.88360  0.26310  Biso   1.000  C
  C38      1.0000 0.45460  0.38360  0.26310  Biso   1.000  C
  C39      1.0000 0.04540  0.88360  0.23690  Biso   1.000  C
  C40      1.0000 0.54540  0.38360  0.23690  Biso   1.000  C
  H25      1.0000 0.07790  0.13810  0.72810  Biso   1.000  H
  H26      1.0000 0.57790  0.63810  0.72810  Biso   1.000  H
  H27      1.0000 0.92210  0.13810  0.77190  Biso   1.000  H
  H28      1.0000 0.42210  0.63810  0.77190  Biso   1.000  H
  H29      1.0000 0.92210  0.86190  0.27190  Biso   1.000  H
  H30      1.0000 0.42210  0.36190  0.27190  Biso   1.000  H
  H31      1.0000 0.07790  0.86190  0.22810  Biso   1.000  H
  H32      1.0000 0.57790  0.36190  0.22810  Biso   1.000  H
  C41      1.0000 0.04320  0.04730  0.73670  Biso   1.000  C
  C42      1.0000 0.54320  0.54730  0.73670  Biso   1.000  C
  C43      1.0000 0.95680  0.04730  0.76330  Biso   1.000  C
  C44      1.0000 0.45680  0.54730  0.76330  Biso   1.000  C
  C45      1.0000 0.95680  0.95270  0.26330  Biso   1.000  C
  C46      1.0000 0.45680  0.45270  0.26330  Biso   1.000  C
  C47      1.0000 0.04320  0.95270  0.23670  Biso   1.000  C
  C48      1.0000 0.54320  0.45270  0.23670  Biso   1.000  C
  H33      1.0000 0.07490  0.02420  0.72620  Biso   1.000  H
  H34      1.0000 0.57490  0.52420  0.72620  Biso   1.000  H
  H35      1.0000 0.92510  0.02420  0.77380  Biso   1.000  H
  H36      1.0000 0.42510  0.52420  0.77380  Biso   1.000  H
  H37      1.0000 0.92510  0.97580  0.27380  Biso   1.000  H
  H38      1.0000 0.42510  0.47580  0.27380  Biso   1.000  H
  H39      1.0000 0.07490  0.97580  0.22620  Biso   1.000  H
  H40      1.0000 0.57490  0.47580  0.22620  Biso   1.000  H
  C49      1.0000 0.16560  0.44480  0.55310  Biso   1.000  C
  C50      1.0000 0.66560  0.94480  0.55310  Biso   1.000  C
  C51      1.0000 0.83440  0.44480  0.94690  Biso   1.000  C
  C52      1.0000 0.33440  0.94480  0.94690  Biso   1.000  C
  C53      1.0000 0.83440  0.55520  0.44690  Biso   1.000  C
  C54      1.0000 0.33440  0.05520  0.44690  Biso   1.000  C
  C55      1.0000 0.16560  0.55520  0.05310  Biso   1.000  C
  C56      1.0000 0.66560  0.05520  0.05310  Biso   1.000  C
  H41      1.0000 0.19870  0.43730  0.64790  Biso   1.000  H
  H42      1.0000 0.69870  0.93730  0.64790  Biso   1.000  H
  H43      1.0000 0.80130  0.43730  0.85210  Biso   1.000  H
  H44      1.0000 0.30130  0.93730  0.85210  Biso   1.000  H
  H45      1.0000 0.80130  0.56270  0.35210  Biso   1.000  H
  H46      1.0000 0.30130  0.06270  0.35210  Biso   1.000  H
  H47      1.0000 0.19870  0.56270  0.14790  Biso   1.000  H
  H48      1.0000 0.69870  0.06270  0.14790  Biso   1.000  H
  H49      1.0000 0.17700  0.45430  0.45120  Biso   1.000  H
  H50      1.0000 0.67700  0.95430  0.45120  Biso   1.000  H
  H51      1.0000 0.82300  0.45430  0.04880  Biso   1.000  H
  H52      1.0000 0.32300  0.95430  0.04880  Biso   1.000  H
  H53      1.0000 0.82300  0.54570  0.54880  Biso   1.000  H
  H54      1.0000 0.32300  0.04570  0.54880  Biso   1.000  H
  H55      1.0000 0.17700  0.54570  0.95120  Biso   1.000  H
  H56      1.0000 0.67700  0.04570  0.95120  Biso   1.000  H
  H57      1.0000 0.14220  0.40580  0.53450  Biso   1.000  H
  H58      1.0000 0.64220  0.90580  0.53450  Biso   1.000  H
  H59      1.0000 0.85780  0.40580  0.96550  Biso   1.000  H
  H60      1.0000 0.35780  0.90580  0.96550  Biso   1.000  H
  H61      1.0000 0.85780  0.59420  0.46550  Biso   1.000  H
  H62      1.0000 0.35780  0.09420  0.46550  Biso   1.000  H
  H63      1.0000 0.14220  0.59420  0.03450  Biso   1.000  H
  H64      1.0000 0.64220  0.09420  0.03450  Biso   1.000  H
  C57      1.0000 0.13300  0.50240  0.59330  Biso   1.000  C
  C58      1.0000 0.63300  0.00240  0.59330  Biso   1.000  C
  C59      1.0000 0.86700  0.50240  0.90670  Biso   1.000  C
  C60      1.0000 0.36700  0.00240  0.90670  Biso   1.000  C
  C61      1.0000 0.86700  0.49760  0.40670  Biso   1.000  C
  C62      1.0000 0.36700  0.99760  0.40670  Biso   1.000  C
  C63      1.0000 0.13300  0.49760  0.09330  Biso   1.000  C
  C64      1.0000 0.63300  0.99760  0.09330  Biso   1.000  C
  C65      1.0000 0.14239  0.57080  0.58660  Biso   1.000  C
  C66      1.0000 0.64239  0.07080  0.58660  Biso   1.000  C
  C67      1.0000 0.85761  0.57080  0.91340  Biso   1.000  C
  C68      1.0000 0.35761  0.07080  0.91340  Biso   1.000  C
  C69      1.0000 0.85761  0.42920  0.41340  Biso   1.000  C
  C70      1.0000 0.35761  0.92920  0.41340  Biso   1.000  C
  C71      1.0000 0.14239  0.42920  0.08660  Biso   1.000  C
  C72      1.0000 0.64239  0.92920  0.08660  Biso   1.000  C
  C73      1.0000 0.09690  0.60030  0.63420  Biso   1.000  C
  C74      1.0000 0.59690  0.10030  0.63420  Biso   1.000  C
  C75      1.0000 0.90310  0.60030  0.86580  Biso   1.000  C
  C76      1.0000 0.40310  0.10030  0.86580  Biso   1.000  C
  C77      1.0000 0.90310  0.39970  0.36580  Biso   1.000  C
  C78      1.0000 0.40310  0.89970  0.36580  Biso   1.000  C
  C79      1.0000 0.09690  0.39970  0.13420  Biso   1.000  C
  C80      1.0000 0.59690  0.89970  0.13420  Biso   1.000  C
  C81      1.0000 0.08560  0.67180  0.66280  Biso   1.000  C
  C82      1.0000 0.58560  0.17180  0.66280  Biso   1.000  C
  C83      1.0000 0.91440  0.67180  0.83720  Biso   1.000  C
  C84      1.0000 0.41440  0.17180  0.83720  Biso   1.000  C
  C85      1.0000 0.91440  0.32820  0.33720  Biso   1.000  C
  C86      1.0000 0.41440  0.82820  0.33720  Biso   1.000  C
  C87      1.0000 0.08560  0.32820  0.16280  Biso   1.000  C
  C88      1.0000 0.58560  0.82820  0.16280  Biso   1.000  C
  H65      1.0000 0.07660  0.69500  0.55490  Biso   1.000  H
  H66      1.0000 0.57660  0.19500  0.55490  Biso   1.000  H
  H67      1.0000 0.92340  0.69500  0.94510  Biso   1.000  H
  H68      1.0000 0.42340  0.19500  0.94510  Biso   1.000  H
  H69      1.0000 0.92340  0.30500  0.44510  Biso   1.000  H
  H70      1.0000 0.42340  0.80500  0.44510  Biso   1.000  H
  H71      1.0000 0.07660  0.30500  0.05490  Biso   1.000  H
  H72      1.0000 0.57660  0.80500  0.05490  Biso   1.000  H
  H73      1.0000 0.11860  0.69120  0.74040  Biso   1.000  H
  H74      1.0000 0.61860  0.19120  0.74040  Biso   1.000  H
  H75      1.0000 0.88140  0.69120  0.75960  Biso   1.000  H
  H76      1.0000 0.38140  0.19120  0.75960  Biso   1.000  H
  H77      1.0000 0.88140  0.30880  0.25960  Biso   1.000  H
  H78      1.0000 0.38140  0.80880  0.25960  Biso   1.000  H
  H79      1.0000 0.11860  0.30880  0.24040  Biso   1.000  H
  H80      1.0000 0.61860  0.80880  0.24040  Biso   1.000  H
  H81      1.0000 0.05420  0.67500  0.71160  Biso   1.000  H
  H82      1.0000 0.55420  0.17500  0.71160  Biso   1.000  H
  H83      1.0000 0.94580  0.67500  0.78840  Biso   1.000  H
  H84      1.0000 0.44580  0.17500  0.78840  Biso   1.000  H
  H85      1.0000 0.94580  0.32500  0.28840  Biso   1.000  H
  H86      1.0000 0.44580  0.82500  0.28840  Biso   1.000  H
  H87      1.0000 0.05420  0.32500  0.21160  Biso   1.000  H
  H88      1.0000 0.55420  0.82500  0.21160  Biso   1.000  H
  C89      1.0000 0.18720  0.60340  0.53110  Biso   1.000  C
  C90      1.0000 0.68720  0.10340  0.53110  Biso   1.000  C
  C91      1.0000 0.81280  0.60340  0.96890  Biso   1.000  C
  C92      1.0000 0.31280  0.10340  0.96890  Biso   1.000  C
  C93      1.0000 0.81280  0.39660  0.46890  Biso   1.000  C
  C94      1.0000 0.31280  0.89660  0.46890  Biso   1.000  C
  C95      1.0000 0.18720  0.39660  0.03110  Biso   1.000  C
  C96      1.0000 0.68720  0.89660  0.03110  Biso   1.000  C
  C97      1.0000 0.17850  0.66220  0.43990  Biso   1.000  C
  C98      1.0000 0.67850  0.16220  0.43990  Biso   1.000  C
  C99      1.0000 0.82150  0.66220  0.06010  Biso   1.000  C
  C100     1.0000 0.32150  0.16220  0.06010  Biso   1.000  C
  C101     1.0000 0.82150  0.33780  0.56010  Biso   1.000  C
  C102     1.0000 0.32150  0.83780  0.56010  Biso   1.000  C
  C103     1.0000 0.17850  0.33780  0.93990  Biso   1.000  C
  C104     1.0000 0.67850  0.83780  0.93990  Biso   1.000  C
  H89      1.0000 0.14430  0.68470  0.42330  Biso   1.000  H
  H90      1.0000 0.64430  0.18470  0.42330  Biso   1.000  H
  H91      1.0000 0.85570  0.68470  0.07670  Biso   1.000  H
  H92      1.0000 0.35570  0.18470  0.07670  Biso   1.000  H
  H93      1.0000 0.85570  0.31530  0.57670  Biso   1.000  H
  H94      1.0000 0.35570  0.81530  0.57670  Biso   1.000  H
  H95      1.0000 0.14430  0.31530  0.92330  Biso   1.000  H
  H96      1.0000 0.64430  0.81530  0.92330  Biso   1.000  H
  C105     1.0000 0.21970  0.68810  0.37310  Biso   1.000  C
  C106     1.0000 0.71970  0.18810  0.37310  Biso   1.000  C
  C107     1.0000 0.78030  0.68810  0.12690  Biso   1.000  C
  C108     1.0000 0.28030  0.18810  0.12690  Biso   1.000  C
  C109     1.0000 0.78030  0.31190  0.62690  Biso   1.000  C
  C110     1.0000 0.28030  0.81190  0.62690  Biso   1.000  C
  C111     1.0000 0.21970  0.31190  0.87310  Biso   1.000  C
  C112     1.0000 0.71970  0.81190  0.87310  Biso   1.000  C
  H97      1.0000 0.21200  0.72750  0.31100  Biso   1.000  H
  H98      1.0000 0.71200  0.22750  0.31100  Biso   1.000  H
  H99      1.0000 0.78800  0.72750  0.18900  Biso   1.000  H
  H100     1.0000 0.28800  0.22750  0.18900  Biso   1.000  H
  H101     1.0000 0.78800  0.27250  0.68900  Biso   1.000  H
  H102     1.0000 0.28800  0.77250  0.68900  Biso   1.000  H
  H103     1.0000 0.21200  0.27250  0.81100  Biso   1.000  H
  H104     1.0000 0.71200  0.77250  0.81100  Biso   1.000  H
  C113     1.0000 0.28010  0.60480  0.48930  Biso   1.000  C
  C114     1.0000 0.78010  0.10480  0.48930  Biso   1.000  C
  C115     1.0000 0.71990  0.60480  0.01070  Biso   1.000  C
  C116     1.0000 0.21990  0.10480  0.01070  Biso   1.000  C
  C117     1.0000 0.71990  0.39520  0.51070  Biso   1.000  C
  C118     1.0000 0.21990  0.89520  0.51070  Biso   1.000  C
  C119     1.0000 0.28010  0.39520  0.98930  Biso   1.000  C
  C120     1.0000 0.78010  0.89520  0.98930  Biso   1.000  C
  H105     1.0000 0.31570  0.58540  0.51060  Biso   1.000  H
  H106     1.0000 0.81570  0.08540  0.51060  Biso   1.000  H
  H107     1.0000 0.68430  0.58540  0.98940  Biso   1.000  H
  H108     1.0000 0.18430  0.08540  0.98940  Biso   1.000  H
  H109     1.0000 0.68430  0.41460  0.48940  Biso   1.000  H
  H110     1.0000 0.18430  0.91460  0.48940  Biso   1.000  H
  H111     1.0000 0.31570  0.41460  0.01060  Biso   1.000  H
  H112     1.0000 0.81570  0.91460  0.01060  Biso   1.000  H
  C121     1.0000 0.24120  0.57530  0.55920  Biso   1.000  C
  C122     1.0000 0.74120  0.07530  0.55920  Biso   1.000  C
  C123     1.0000 0.75880  0.57530  0.94080  Biso   1.000  C
  C124     1.0000 0.25880  0.07530  0.94080  Biso   1.000  C
  C125     1.0000 0.75880  0.42470  0.44080  Biso   1.000  C
  C126     1.0000 0.25880  0.92470  0.44080  Biso   1.000  C
  C127     1.0000 0.24120  0.42470  0.05920  Biso   1.000  C
  C128     1.0000 0.74120  0.92470  0.05920  Biso   1.000  C
  H113     1.0000 0.25070  0.53690  0.62490  Biso   1.000  H
  H114     1.0000 0.75070  0.03690  0.62490  Biso   1.000  H
  H115     1.0000 0.74930  0.53690  0.87510  Biso   1.000  H
  H116     1.0000 0.24930  0.03690  0.87510  Biso   1.000  H
  H117     1.0000 0.74930  0.46310  0.37510  Biso   1.000  H
  H118     1.0000 0.24930  0.96310  0.37510  Biso   1.000  H
  H119     1.0000 0.25070  0.46310  0.12490  Biso   1.000  H
  H120     1.0000 0.75070  0.96310  0.12490  Biso   1.000  H
  C129     1.0000 0.43090  0.62120  0.26050  Biso   1.000  C
  C130     1.0000 0.93090  0.12120  0.26050  Biso   1.000  C
  C131     1.0000 0.56910  0.62120  0.23950  Biso   1.000  C
  C132     1.0000 0.06910  0.12120  0.23950  Biso   1.000  C
  C133     1.0000 0.56910  0.37880  0.73950  Biso   1.000  C
  C134     1.0000 0.06910  0.87880  0.73950  Biso   1.000  C
  C135     1.0000 0.43090  0.37880  0.76050  Biso   1.000  C
  C136     1.0000 0.93090  0.87880  0.76050  Biso   1.000  C
