data_image0
_cell_length_a       12.874
_cell_length_b       13.079
_cell_length_c       16.471
_cell_angle_alpha    86.193
_cell_angle_beta     85.954
_cell_angle_gamma    80.815

_symmetry_space_group_name_H-M    "P 1"
_symmetry_int_tables_number       1

loop_
  _symmetry_equiv_pos_as_xyz
  'x, y, z'

loop_
  _atom_site_label
  _atom_site_occupancy
  _atom_site_fract_x
  _atom_site_fract_y
  _atom_site_fract_z
  _atom_site_thermal_displace_type
  _atom_site_B_iso_or_equiv
  _atom_site_type_symbol
  Pd1      1.0000 0.99808  0.77153  0.98839  Biso   1.000  Pd
  Pd2      1.0000 0.00192  0.22847  0.01161  Biso   1.000  Pd
  Cu1      1.0000 0.45856  0.23331  0.48954  Biso   1.000  Cu
  Cu2      1.0000 0.54144  0.76669  0.51046  Biso   1.000  Cu
  Cu3      1.0000 0.53068  0.04435  0.02566  Biso   1.000  Cu
  Cu4      1.0000 0.46932  0.95565  0.97434  Biso   1.000  Cu
  Na1      1.0000 0.50000  0.00000  0.50000  Biso   1.000  Na
  Na2      1.0000 0.60746  0.39761  0.49518  Biso   1.000  Na
  Na3      1.0000 0.39254  0.60239  0.50482  Biso   1.000  Na
  C1       1.0000 0.95110  0.84530  0.16040  Biso   1.000  C
  C2       1.0000 0.04890  0.15470  0.83960  Biso   1.000  C
  C3       1.0000 0.87890  0.93090  0.13690  Biso   1.000  C
  C4       1.0000 0.12110  0.06910  0.86310  Biso   1.000  C
  C5       1.0000 0.85600  0.95950  0.05660  Biso   1.000  C
  C6       1.0000 0.14400  0.04050  0.94340  Biso   1.000  C
  C7       1.0000 0.78390  0.05000  0.03090  Biso   1.000  C
  C8       1.0000 0.21610  0.95000  0.96910  Biso   1.000  C
  H1       1.0000 0.75030  0.10370  0.06420  Biso   1.000  H
  H2       1.0000 0.24970  0.89630  0.93580  Biso   1.000  H
  C9       1.0000 0.77310  0.04390  0.95050  Biso   1.000  C
  C10      1.0000 0.22690  0.95610  0.04950  Biso   1.000  C
  H3       1.0000 0.73030  0.09290  0.91700  Biso   1.000  H
  H4       1.0000 0.26970  0.90710  0.08300  Biso   1.000  H
  C11      1.0000 0.83790  0.95020  0.92450  Biso   1.000  C
  C12      1.0000 0.16210  0.04980  0.07550  Biso   1.000  C
  C13      1.0000 0.84010  0.91200  0.84710  Biso   1.000  C
  C14      1.0000 0.15990  0.08800  0.15290  Biso   1.000  C
  C15      1.0000 0.90500  0.82200  0.82270  Biso   1.000  C
  C16      1.0000 0.09500  0.17800  0.17730  Biso   1.000  C
  C17      1.0000 0.91480  0.78700  0.74100  Biso   1.000  C
  C18      1.0000 0.08520  0.21300  0.25900  Biso   1.000  C
  H5       1.0000 0.87460  0.81670  0.69670  Biso   1.000  H
  H6       1.0000 0.12540  0.18330  0.30330  Biso   1.000  H
  C19      1.0000 0.99220  0.70390  0.73920  Biso   1.000  C
  C20      1.0000 0.00780  0.29610  0.26080  Biso   1.000  C
  H7       1.0000 0.01630  0.66420  0.69340  Biso   1.000  H
  H8       1.0000 0.98370  0.33580  0.30660  Biso   1.000  H
  C21      1.0000 0.03120  0.68660  0.81940  Biso   1.000  C
  C22      1.0000 0.96880  0.31340  0.18060  Biso   1.000  C
  C23      1.0000 0.11540  0.61060  0.84040  Biso   1.000  C
  C24      1.0000 0.88460  0.38940  0.15960  Biso   1.000  C
  C25      1.0000 0.15370  0.59470  0.91790  Biso   1.000  C
  C26      1.0000 0.84630  0.40530  0.08210  Biso   1.000  C
  C27      1.0000 0.24130  0.51770  0.94010  Biso   1.000  C
  C28      1.0000 0.75870  0.48230  0.05990  Biso   1.000  C
  H9       1.0000 0.28410  0.47190  0.90460  Biso   1.000  H
  H10      1.0000 0.71590  0.52810  0.09540  Biso   1.000  H
  C29      1.0000 0.25150  0.52230  0.02050  Biso   1.000  C
  C30      1.0000 0.74850  0.47770  0.97950  Biso   1.000  C
  H11      1.0000 0.30220  0.48010  0.05240  Biso   1.000  H
  H12      1.0000 0.69780  0.51990  0.94760  Biso   1.000  H
  C31      1.0000 0.17070  0.60340  0.04860  Biso   1.000  C
  C32      1.0000 0.82930  0.39660  0.95140  Biso   1.000  C
  C33      1.0000 0.15490  0.63070  0.12950  Biso   1.000  C
  C34      1.0000 0.84510  0.36930  0.87050  Biso   1.000  C
  C35      1.0000 0.07750  0.71060  0.15650  Biso   1.000  C
  C36      1.0000 0.92250  0.28940  0.84350  Biso   1.000  C
  C37      1.0000 0.05610  0.73400  0.24070  Biso   1.000  C
  C38      1.0000 0.94390  0.26600  0.75930  Biso   1.000  C
  H13      1.0000 0.09060  0.69880  0.28600  Biso   1.000  H
  H14      1.0000 0.90940  0.30120  0.71400  Biso   1.000  H
  C39      1.0000 0.97710  0.81580  0.24290  Biso   1.000  C
  C40      1.0000 0.02290  0.18420  0.75710  Biso   1.000  C
  H15      1.0000 0.94490  0.84790  0.29040  Biso   1.000  H
  H16      1.0000 0.05510  0.15210  0.70960  Biso   1.000  H
  N1       1.0000 0.01260  0.77850  0.10871  Biso   1.000  N
  N2       1.0000 0.98740  0.22150  0.89129  Biso   1.000  N
  N3       1.0000 0.88940  0.90160  0.99009  Biso   1.000  N
  N4       1.0000 0.11060  0.09840  0.00991  Biso   1.000  N
  N5       1.0000 0.97660  0.75910  0.86942  Biso   1.000  N
  N6       1.0000 0.02340  0.24090  0.13058  Biso   1.000  N
  N7       1.0000 0.11360  0.64760  0.98494  Biso   1.000  N
  N8       1.0000 0.88640  0.35240  0.01506  Biso   1.000  N
  C41      1.0000 0.81850  0.99440  0.20210  Biso   1.000  C
  C42      1.0000 0.18150  0.00560  0.79790  Biso   1.000  C
  C43      1.0000 0.74290  0.95180  0.25280  Biso   1.000  C
  C44      1.0000 0.25710  0.04820  0.74720  Biso   1.000  C
  H17      1.0000 0.73430  0.88170  0.24770  Biso   1.000  H
  H18      1.0000 0.26570  0.11830  0.75230  Biso   1.000  H
  C45      1.0000 0.68020  0.01010  0.31040  Biso   1.000  C
  C46      1.0000 0.31980  0.98990  0.68960  Biso   1.000  C
  H19      1.0000 0.62780  0.98040  0.34320  Biso   1.000  H
  H20      1.0000 0.37220  0.01960  0.65680  Biso   1.000  H
  C47      1.0000 0.69380  0.11230  0.32040  Biso   1.000  C
  C48      1.0000 0.30620  0.88770  0.67960  Biso   1.000  C
  C49      1.0000 0.77190  0.15270  0.27230  Biso   1.000  C
  C50      1.0000 0.22810  0.84730  0.72770  Biso   1.000  C
  H21      1.0000 0.78400  0.22110  0.27990  Biso   1.000  H
  H22      1.0000 0.21600  0.77890  0.72010  Biso   1.000  H
  C51      1.0000 0.83280  0.09520  0.21330  Biso   1.000  C
  C52      1.0000 0.16720  0.90480  0.78670  Biso   1.000  C
  H23      1.0000 0.88480  0.12530  0.18020  Biso   1.000  H
  H24      1.0000 0.11520  0.87470  0.81980  Biso   1.000  H
  C53      1.0000 0.62430  0.17850  0.37950  Biso   1.000  C
  C54      1.0000 0.37570  0.82150  0.62050  Biso   1.000  C
  C55      1.0000 0.77350  0.97450  0.78540  Biso   1.000  C
  C56      1.0000 0.22650  0.02550  0.21460  Biso   1.000  C
  C57      1.0000 0.79680  0.07140  0.75820  Biso   1.000  C
  C58      1.0000 0.20320  0.92860  0.24180  Biso   1.000  C
  H25      1.0000 0.85300  0.09710  0.78040  Biso   1.000  H
  H26      1.0000 0.14700  0.90290  0.21960  Biso   1.000  H
  C59      1.0000 0.73950  0.13100  0.69950  Biso   1.000  C
  C60      1.0000 0.26050  0.86900  0.30050  Biso   1.000  C
  H27      1.0000 0.75810  0.19630  0.68070  Biso   1.000  H
  H28      1.0000 0.24190  0.80370  0.31930  Biso   1.000  H
  C61      1.0000 0.65490  0.09680  0.66770  Biso   1.000  C
  C62      1.0000 0.34510  0.90320  0.33230  Biso   1.000  C
  C63      1.0000 0.63140  0.99850  0.69390  Biso   1.000  C
  C64      1.0000 0.36860  0.00150  0.30610  Biso   1.000  C
  H29      1.0000 0.57470  0.97310  0.67210  Biso   1.000  H
  H30      1.0000 0.42530  0.02690  0.32790  Biso   1.000  H
  C65      1.0000 0.69120  0.93760  0.75220  Biso   1.000  C
  C66      1.0000 0.30880  0.06240  0.24780  Biso   1.000  C
  H31      1.0000 0.67560  0.87060  0.76920  Biso   1.000  H
  H32      1.0000 0.32440  0.12940  0.23080  Biso   1.000  H
  C67      1.0000 0.59360  0.16620  0.60500  Biso   1.000  C
  C68      1.0000 0.40640  0.83380  0.39500  Biso   1.000  C
  C69      1.0000 0.16500  0.53840  0.77660  Biso   1.000  C
  C70      1.0000 0.83500  0.46160  0.22340  Biso   1.000  C
  C71      1.0000 0.26280  0.54510  0.73840  Biso   1.000  C
  C72      1.0000 0.73720  0.45490  0.26160  Biso   1.000  C
  H33      1.0000 0.30010  0.59790  0.75220  Biso   1.000  H
  H34      1.0000 0.69990  0.40210  0.24780  Biso   1.000  H
  C73      1.0000 0.30780  0.47650  0.68040  Biso   1.000  C
  C74      1.0000 0.69220  0.52350  0.31960  Biso   1.000  C
  H35      1.0000 0.37520  0.48260  0.65470  Biso   1.000  H
  H36      1.0000 0.62480  0.51740  0.34530  Biso   1.000  H
  C75      1.0000 0.25370  0.39870  0.66010  Biso   1.000  C
  C76      1.0000 0.74630  0.60130  0.33990  Biso   1.000  C
  C77      1.0000 0.15560  0.39190  0.69800  Biso   1.000  C
  C78      1.0000 0.84440  0.60810  0.30200  Biso   1.000  C
  H37      1.0000 0.11800  0.33930  0.68410  Biso   1.000  H
  H38      1.0000 0.88200  0.66070  0.31590  Biso   1.000  H
  C79      1.0000 0.11130  0.46070  0.75590  Biso   1.000  C
  C80      1.0000 0.88870  0.53930  0.24410  Biso   1.000  C
  H39      1.0000 0.04390  0.45470  0.78150  Biso   1.000  H
  H40      1.0000 0.95610  0.54530  0.21850  Biso   1.000  H
  C81      1.0000 0.30020  0.31950  0.60000  Biso   1.000  C
  C82      1.0000 0.69980  0.68050  0.40000  Biso   1.000  C
  C83      1.0000 0.22290  0.57040  0.19140  Biso   1.000  C
  C84      1.0000 0.77710  0.42960  0.80860  Biso   1.000  C
  C85      1.0000 0.21030  0.46930  0.21780  Biso   1.000  C
  C86      1.0000 0.78970  0.53070  0.78220  Biso   1.000  C
  H41      1.0000 0.16070  0.43620  0.19340  Biso   1.000  H
  H42      1.0000 0.83930  0.56380  0.80660  Biso   1.000  H
  C87      1.0000 0.26930  0.41660  0.27910  Biso   1.000  C
  C88      1.0000 0.73070  0.58340  0.72090  Biso   1.000  C
  H43      1.0000 0.26040  0.34760  0.29650  Biso   1.000  H
  H44      1.0000 0.73960  0.65240  0.70350  Biso   1.000  H
  C89      1.0000 0.34160  0.46490  0.31520  Biso   1.000  C
  C90      1.0000 0.65840  0.53510  0.68480  Biso   1.000  C
  C91      1.0000 0.35690  0.56490  0.28820  Biso   1.000  C
  C92      1.0000 0.64310  0.43510  0.71180  Biso   1.000  C
  H45      1.0000 0.40710  0.59770  0.31210  Biso   1.000  H
  H46      1.0000 0.59290  0.40230  0.68790  Biso   1.000  H
  C93      1.0000 0.29830  0.61600  0.22630  Biso   1.000  C
  C94      1.0000 0.70170  0.38400  0.77370  Biso   1.000  C
  H47      1.0000 0.30970  0.68370  0.20720  Biso   1.000  H
  H48      1.0000 0.69030  0.31630  0.79280  Biso   1.000  H
  C95      1.0000 0.40290  0.41020  0.38430  Biso   1.000  C
  C96      1.0000 0.59710  0.58980  0.61570  Biso   1.000  C
  O1       1.0000 0.54600  0.13943  0.41447  Biso   1.000  O
  O2       1.0000 0.45400  0.86057  0.58553  Biso   1.000  O
  O3       1.0000 0.64360  0.26632  0.39121  Biso   1.000  O
  O4       1.0000 0.35640  0.73368  0.60879  Biso   1.000  O
  O5       1.0000 0.62200  0.24984  0.58245  Biso   1.000  O
  O6       1.0000 0.37800  0.75016  0.41755  Biso   1.000  O
  O7       1.0000 0.51390  0.13401  0.57912  Biso   1.000  O
  O8       1.0000 0.48610  0.86599  0.42088  Biso   1.000  O
  O9       1.0000 0.38990  0.33075  0.56703  Biso   1.000  O
  O10      1.0000 0.61010  0.66925  0.43297  Biso   1.000  O
  O11      1.0000 0.24960  0.24980  0.58720  Biso   1.000  O
  O12      1.0000 0.75040  0.75020  0.41280  Biso   1.000  O
  O13      1.0000 0.39350  0.31452  0.39880  Biso   1.000  O
  O14      1.0000 0.60650  0.68548  0.60120  Biso   1.000  O
  O15      1.0000 0.45770  0.45905  0.42226  Biso   1.000  O
  O16      1.0000 0.54230  0.54095  0.57774  Biso   1.000  O
  N9       1.0000 0.20550  0.60240  0.50100  Biso   1.000  N
  N10      1.0000 0.79450  0.39760  0.49900  Biso   1.000  N
  C97      1.0000 0.14920  0.69430  0.52240  Biso   1.000  C
  C98      1.0000 0.85080  0.30570  0.47760  Biso   1.000  C
  H49      1.0000 0.18390  0.73800  0.55140  Biso   1.000  H
  H50      1.0000 0.81610  0.26200  0.44860  Biso   1.000  H
  C99      1.0000 0.04500  0.73000  0.50540  Biso   1.000  C
  C100     1.0000 0.95500  0.27000  0.49460  Biso   1.000  C
  H51      1.0000 0.00980  0.79500  0.52290  Biso   1.000  H
  H52      1.0000 0.99020  0.20500  0.47710  Biso   1.000  H
  C101     1.0000 0.99640  0.67060  0.46420  Biso   1.000  C
  C102     1.0000 0.00360  0.32940  0.53580  Biso   1.000  C
  H53      1.0000 0.92540  0.69230  0.45080  Biso   1.000  H
  H54      1.0000 0.07460  0.30770  0.54920  Biso   1.000  H
  C103     1.0000 0.05200  0.57370  0.44020  Biso   1.000  C
  C104     1.0000 0.94800  0.42630  0.55980  Biso   1.000  C
  H55      1.0000 0.01990  0.53020  0.40890  Biso   1.000  H
  H56      1.0000 0.98010  0.46980  0.59110  Biso   1.000  H
  C105     1.0000 0.15450  0.54390  0.46360  Biso   1.000  C
  C106     1.0000 0.84550  0.45610  0.53640  Biso   1.000  C
  H57      1.0000 0.18920  0.47650  0.45140  Biso   1.000  H
  H58      1.0000 0.81080  0.52350  0.54860  Biso   1.000  H
  N11      1.0000 0.56060  0.89690  0.07200  Biso   1.000  N
  N12      1.0000 0.43940  0.10310  0.92800  Biso   1.000  N
  C107     1.0000 0.51610  0.86870  0.14370  Biso   1.000  C
  C108     1.0000 0.48390  0.13130  0.85630  Biso   1.000  C
  H59      1.0000 0.45290  0.90980  0.16340  Biso   1.000  H
  H60      1.0000 0.54710  0.09020  0.83660  Biso   1.000  H
  C109     1.0000 0.55730  0.78330  0.19030  Biso   1.000  C
  C110     1.0000 0.44270  0.21670  0.80970  Biso   1.000  C
  H61      1.0000 0.52270  0.76450  0.24060  Biso   1.000  H
  H62      1.0000 0.47730  0.23550  0.75940  Biso   1.000  H
  C111     1.0000 0.65010  0.72530  0.16240  Biso   1.000  C
  C112     1.0000 0.34990  0.27470  0.83760  Biso   1.000  C
  H63      1.0000 0.68040  0.66520  0.19310  Biso   1.000  H
  H64      1.0000 0.31960  0.33480  0.80690  Biso   1.000  H
  C113     1.0000 0.69870  0.75520  0.08950  Biso   1.000  C
  C114     1.0000 0.30130  0.24480  0.91050  Biso   1.000  C
  H65      1.0000 0.76360  0.71720  0.06970  Biso   1.000  H
  H66      1.0000 0.23640  0.28280  0.93030  Biso   1.000  H
  C115     1.0000 0.65130  0.84120  0.04610  Biso   1.000  C
  C116     1.0000 0.34870  0.15880  0.95390  Biso   1.000  C
  H67      1.0000 0.68440  0.86180  0.99560  Biso   1.000  H
  H68      1.0000 0.31560  0.13820  0.00440  Biso   1.000  H
  N13      1.0000 0.54190  0.18930  0.07540  Biso   1.000  N
  N14      1.0000 0.45810  0.81070  0.92460  Biso   1.000  N
  C117     1.0000 0.53560  0.19580  0.15530  Biso   1.000  C
  C118     1.0000 0.46440  0.80420  0.84470  Biso   1.000  C
  H69      1.0000 0.54490  0.13350  0.18900  Biso   1.000  H
  H70      1.0000 0.45510  0.86650  0.81100  Biso   1.000  H
  C119     1.0000 0.51620  0.28810  0.19140  Biso   1.000  C
  C120     1.0000 0.48380  0.71190  0.80860  Biso   1.000  C
  H71      1.0000 0.50910  0.28930  0.24910  Biso   1.000  H
  H72      1.0000 0.49090  0.71070  0.75090  Biso   1.000  H
  C121     1.0000 0.50690  0.37970  0.14450  Biso   1.000  C
  C122     1.0000 0.49310  0.62030  0.85550  Biso   1.000  C
  H73      1.0000 0.49390  0.44340  0.17070  Biso   1.000  H
  H74      1.0000 0.50610  0.55660  0.82930  Biso   1.000  H
  C123     1.0000 0.51570  0.38160  0.06240  Biso   1.000  C
  C124     1.0000 0.48430  0.61840  0.93760  Biso   1.000  C
  H75      1.0000 0.50920  0.44420  0.02910  Biso   1.000  H
  H76      1.0000 0.49080  0.55580  0.97090  Biso   1.000  H
  C125     1.0000 0.53530  0.28330  0.03060  Biso   1.000  C
  C126     1.0000 0.46470  0.71670  0.96940  Biso   1.000  C
  H77      1.0000 0.54480  0.28090  0.97300  Biso   1.000  H
  H78      1.0000 0.45520  0.71910  0.02700  Biso   1.000  H
  C127     1.0000 0.92780  0.99980  0.44580  Biso   1.000  C
  C128     1.0000 0.07220  0.00020  0.55420  Biso   1.000  C
  H79      1.0000 0.87810  0.00250  0.40540  Biso   1.000  H
  H80      1.0000 0.12190  0.99750  0.59460  Biso   1.000  H
  C129     1.0000 0.89490  0.99520  0.52420  Biso   1.000  C
  C130     1.0000 0.10510  0.00480  0.47580  Biso   1.000  C
  H81      1.0000 0.82390  0.98940  0.54120  Biso   1.000  H
  H82      1.0000 0.17610  0.01060  0.45880  Biso   1.000  H
  C131     1.0000 0.03200  0.00070  0.42190  Biso   1.000  C
  C132     1.0000 0.96800  0.99930  0.57810  Biso   1.000  C
  H83      1.0000 0.05330  0.99840  0.36550  Biso   1.000  H
  H84      1.0000 0.94670  0.00160  0.63450  Biso   1.000  H
  O17      1.0000 0.32990  0.09940  0.48864  Biso   1.000  O
  O18      1.0000 0.67010  0.90060  0.51136  Biso   1.000  O
  H85      1.0000 0.30460  0.10890  0.45040  Biso   1.000  H
  H86      1.0000 0.69540  0.89110  0.54960  Biso   1.000  H
  H87      1.0000 0.29570  0.13030  0.52250  Biso   1.000  H
  H88      1.0000 0.70430  0.86970  0.47750  Biso   1.000  H
