data_image0
_cell_length_a       12.924
_cell_length_b       13.137
_cell_length_c       16.6
_cell_angle_alpha    85.575
_cell_angle_beta     85.426
_cell_angle_gamma    80.098

_symmetry_space_group_name_H-M    "P 1"
_symmetry_int_tables_number       1

loop_
  _symmetry_equiv_pos_as_xyz
  'x, y, z'

loop_
  _atom_site_label
  _atom_site_occupancy
  _atom_site_fract_x
  _atom_site_fract_y
  _atom_site_fract_z
  _atom_site_thermal_displace_type
  _atom_site_B_iso_or_equiv
  _atom_site_type_symbol
  Pt1      1.0000 0.99736  0.77381  0.98820  Biso   1.000  Pt
  Pt2      1.0000 0.00264  0.22619  0.01180  Biso   1.000  Pt
  Cu1      1.0000 0.45746  0.23485  0.48986  Biso   1.000  Cu
  Cu2      1.0000 0.54254  0.76515  0.51014  Biso   1.000  Cu
  Cu3      1.0000 0.53241  0.04769  0.02780  Biso   1.000  Cu
  Cu4      1.0000 0.46759  0.95231  0.97220  Biso   1.000  Cu
  Na1      1.0000 0.50000  0.00000  0.50000  Biso   1.000  Na
  Na2      1.0000 0.60712  0.39808  0.49322  Biso   1.000  Na
  Na3      1.0000 0.39288  0.60192  0.50678  Biso   1.000  Na
  C1       1.0000 0.94930  0.84800  0.15930  Biso   1.000  C
  C2       1.0000 0.05070  0.15200  0.84070  Biso   1.000  C
  C3       1.0000 0.87710  0.93410  0.13550  Biso   1.000  C
  C4       1.0000 0.12290  0.06590  0.86450  Biso   1.000  C
  C5       1.0000 0.85420  0.96230  0.05570  Biso   1.000  C
  C6       1.0000 0.14580  0.03770  0.94430  Biso   1.000  C
  C7       1.0000 0.78300  0.05160  0.02890  Biso   1.000  C
  C8       1.0000 0.21700  0.94840  0.97110  Biso   1.000  C
  H1       1.0000 0.74960  0.10570  0.06160  Biso   1.000  H
  H2       1.0000 0.25040  0.89430  0.93840  Biso   1.000  H
  C9       1.0000 0.77090  0.04670  0.94960  Biso   1.000  C
  C10      1.0000 0.22910  0.95330  0.05040  Biso   1.000  C
  H3       1.0000 0.72710  0.09550  0.91650  Biso   1.000  H
  H4       1.0000 0.27290  0.90450  0.08350  Biso   1.000  H
  C11      1.0000 0.83710  0.95350  0.92450  Biso   1.000  C
  C12      1.0000 0.16290  0.04650  0.07550  Biso   1.000  C
  C13      1.0000 0.83970  0.91480  0.84830  Biso   1.000  C
  C14      1.0000 0.16030  0.08520  0.15170  Biso   1.000  C
  C15      1.0000 0.90450  0.82390  0.82340  Biso   1.000  C
  C16      1.0000 0.09550  0.17610  0.17660  Biso   1.000  C
  C17      1.0000 0.91330  0.78850  0.74310  Biso   1.000  C
  C18      1.0000 0.08670  0.21150  0.25690  Biso   1.000  C
  H5       1.0000 0.87250  0.81830  0.69950  Biso   1.000  H
  H6       1.0000 0.12750  0.18170  0.30050  Biso   1.000  H
  C19      1.0000 0.99050  0.70490  0.74130  Biso   1.000  C
  C20      1.0000 0.00950  0.29510  0.25870  Biso   1.000  C
  H7       1.0000 0.01420  0.66490  0.69610  Biso   1.000  H
  H8       1.0000 0.98580  0.33510  0.30390  Biso   1.000  H
  C21      1.0000 0.02990  0.68800  0.82070  Biso   1.000  C
  C22      1.0000 0.97010  0.31200  0.17930  Biso   1.000  C
  C23      1.0000 0.11430  0.61090  0.84200  Biso   1.000  C
  C24      1.0000 0.88570  0.38910  0.15800  Biso   1.000  C
  C25      1.0000 0.15320  0.59580  0.91830  Biso   1.000  C
  C26      1.0000 0.84680  0.40420  0.08170  Biso   1.000  C
  C27      1.0000 0.24080  0.51720  0.94110  Biso   1.000  C
  C28      1.0000 0.75920  0.48280  0.05890  Biso   1.000  C
  H9       1.0000 0.28270  0.47000  0.90630  Biso   1.000  H
  H10      1.0000 0.71730  0.53000  0.09370  Biso   1.000  H
  C29      1.0000 0.25240  0.52290  0.02000  Biso   1.000  C
  C30      1.0000 0.74760  0.47710  0.98000  Biso   1.000  C
  H11      1.0000 0.30420  0.48120  0.05120  Biso   1.000  H
  H12      1.0000 0.69580  0.51880  0.94880  Biso   1.000  H
  C31      1.0000 0.17120  0.60470  0.04850  Biso   1.000  C
  C32      1.0000 0.82880  0.39530  0.95150  Biso   1.000  C
  C33      1.0000 0.15560  0.63260  0.12870  Biso   1.000  C
  C34      1.0000 0.84440  0.36740  0.87130  Biso   1.000  C
  C35      1.0000 0.07770  0.71330  0.15540  Biso   1.000  C
  C36      1.0000 0.92230  0.28670  0.84460  Biso   1.000  C
  C37      1.0000 0.05510  0.73710  0.23900  Biso   1.000  C
  C38      1.0000 0.94490  0.26290  0.76100  Biso   1.000  C
  H13      1.0000 0.08960  0.70170  0.28400  Biso   1.000  H
  H14      1.0000 0.91040  0.29830  0.71600  Biso   1.000  H
  C39      1.0000 0.97610  0.81850  0.24170  Biso   1.000  C
  C40      1.0000 0.02390  0.18150  0.75830  Biso   1.000  C
  H15      1.0000 0.94410  0.85060  0.28890  Biso   1.000  H
  H16      1.0000 0.05590  0.14940  0.71110  Biso   1.000  H
  N1       1.0000 0.01210  0.78110  0.10690  Biso   1.000  N
  N2       1.0000 0.98790  0.21890  0.89310  Biso   1.000  N
  N3       1.0000 0.88900  0.90420  0.98980  Biso   1.000  N
  N4       1.0000 0.11100  0.09580  0.01020  Biso   1.000  N
  N5       1.0000 0.97680  0.76050  0.87090  Biso   1.000  N
  N6       1.0000 0.02320  0.23950  0.12910  Biso   1.000  N
  N7       1.0000 0.11240  0.64870  0.98610  Biso   1.000  N
  N8       1.0000 0.88760  0.35130  0.01390  Biso   1.000  N
  C41      1.0000 0.81650  0.99680  0.20020  Biso   1.000  C
  C42      1.0000 0.18350  0.00320  0.79980  Biso   1.000  C
  C43      1.0000 0.74130  0.95450  0.25200  Biso   1.000  C
  C44      1.0000 0.25870  0.04550  0.74800  Biso   1.000  C
  H17      1.0000 0.73230  0.88500  0.24740  Biso   1.000  H
  H18      1.0000 0.26770  0.11500  0.75260  Biso   1.000  H
  C45      1.0000 0.68060  0.01220  0.30910  Biso   1.000  C
  C46      1.0000 0.31940  0.98780  0.69090  Biso   1.000  C
  H19      1.0000 0.62830  0.98280  0.34200  Biso   1.000  H
  H20      1.0000 0.37170  0.01720  0.65800  Biso   1.000  H
  C47      1.0000 0.69400  0.11340  0.32000  Biso   1.000  C
  C48      1.0000 0.30600  0.88660  0.68000  Biso   1.000  C
  C49      1.0000 0.77070  0.15510  0.27050  Biso   1.000  C
  C50      1.0000 0.22930  0.84490  0.72950  Biso   1.000  C
  H21      1.0000 0.78180  0.22350  0.27720  Biso   1.000  H
  H22      1.0000 0.21820  0.77650  0.72280  Biso   1.000  H
  C51      1.0000 0.83120  0.09740  0.21150  Biso   1.000  C
  C52      1.0000 0.16880  0.90260  0.78850  Biso   1.000  C
  H23      1.0000 0.88320  0.12690  0.17840  Biso   1.000  H
  H24      1.0000 0.11680  0.87310  0.82160  Biso   1.000  H
  C53      1.0000 0.62400  0.18020  0.38020  Biso   1.000  C
  C54      1.0000 0.37600  0.81980  0.61980  Biso   1.000  C
  C55      1.0000 0.77140  0.97740  0.78590  Biso   1.000  C
  C56      1.0000 0.22860  0.02260  0.21410  Biso   1.000  C
  C57      1.0000 0.79320  0.07300  0.75800  Biso   1.000  C
  C58      1.0000 0.20680  0.92700  0.24200  Biso   1.000  C
  H25      1.0000 0.84870  0.09880  0.77960  Biso   1.000  H
  H26      1.0000 0.15130  0.90120  0.22040  Biso   1.000  H
  C59      1.0000 0.73550  0.13320  0.69830  Biso   1.000  C
  C60      1.0000 0.26450  0.86680  0.30170  Biso   1.000  C
  H27      1.0000 0.75380  0.19790  0.67820  Biso   1.000  H
  H28      1.0000 0.24620  0.80210  0.32180  Biso   1.000  H
  C61      1.0000 0.65180  0.09840  0.66860  Biso   1.000  C
  C62      1.0000 0.34820  0.90160  0.33140  Biso   1.000  C
  C63      1.0000 0.62890  0.00170  0.69660  Biso   1.000  C
  C64      1.0000 0.37110  0.99830  0.30340  Biso   1.000  C
  H29      1.0000 0.57210  0.97670  0.67610  Biso   1.000  H
  H30      1.0000 0.42790  0.02330  0.32390  Biso   1.000  H
  C65      1.0000 0.68920  0.94040  0.75520  Biso   1.000  C
  C66      1.0000 0.31080  0.05960  0.24480  Biso   1.000  C
  H31      1.0000 0.67360  0.87410  0.77360  Biso   1.000  H
  H32      1.0000 0.32640  0.12590  0.22640  Biso   1.000  H
  C67      1.0000 0.59080  0.16750  0.60530  Biso   1.000  C
  C68      1.0000 0.40920  0.83250  0.39470  Biso   1.000  C
  C69      1.0000 0.16360  0.53790  0.77850  Biso   1.000  C
  C70      1.0000 0.83640  0.46210  0.22150  Biso   1.000  C
  C71      1.0000 0.26210  0.54490  0.73980  Biso   1.000  C
  C72      1.0000 0.73790  0.45510  0.26020  Biso   1.000  C
  H33      1.0000 0.29970  0.59680  0.75320  Biso   1.000  H
  H34      1.0000 0.70030  0.40320  0.24680  Biso   1.000  H
  C73      1.0000 0.30560  0.47590  0.68150  Biso   1.000  C
  C74      1.0000 0.69440  0.52410  0.31850  Biso   1.000  C
  H35      1.0000 0.37230  0.48150  0.65470  Biso   1.000  H
  H36      1.0000 0.62770  0.51850  0.34530  Biso   1.000  H
  C75      1.0000 0.25160  0.39880  0.66260  Biso   1.000  C
  C76      1.0000 0.74840  0.60120  0.33740  Biso   1.000  C
  C77      1.0000 0.15440  0.39210  0.70150  Biso   1.000  C
  C78      1.0000 0.84560  0.60790  0.29850  Biso   1.000  C
  H37      1.0000 0.11690  0.34010  0.68850  Biso   1.000  H
  H38      1.0000 0.88310  0.65990  0.31150  Biso   1.000  H
  C79      1.0000 0.11060  0.46080  0.75970  Biso   1.000  C
  C80      1.0000 0.88940  0.53920  0.24030  Biso   1.000  C
  H39      1.0000 0.04400  0.45470  0.78660  Biso   1.000  H
  H40      1.0000 0.95600  0.54530  0.21340  Biso   1.000  H
  C81      1.0000 0.29880  0.31920  0.60300  Biso   1.000  C
  C82      1.0000 0.70120  0.68080  0.39700  Biso   1.000  C
  C83      1.0000 0.22430  0.57310  0.19060  Biso   1.000  C
  C84      1.0000 0.77570  0.42690  0.80940  Biso   1.000  C
  C85      1.0000 0.21360  0.47120  0.21730  Biso   1.000  C
  C86      1.0000 0.78640  0.52880  0.78270  Biso   1.000  C
  H41      1.0000 0.16560  0.43750  0.19310  Biso   1.000  H
  H42      1.0000 0.83440  0.56250  0.80690  Biso   1.000  H
  C87      1.0000 0.27200  0.41980  0.27810  Biso   1.000  C
  C88      1.0000 0.72800  0.58020  0.72190  Biso   1.000  C
  H43      1.0000 0.26360  0.35100  0.29590  Biso   1.000  H
  H44      1.0000 0.73640  0.64900  0.70410  Biso   1.000  H
  C89      1.0000 0.34390  0.46780  0.31430  Biso   1.000  C
  C90      1.0000 0.65610  0.53220  0.68570  Biso   1.000  C
  C91      1.0000 0.35730  0.56730  0.28650  Biso   1.000  C
  C92      1.0000 0.64270  0.43270  0.71350  Biso   1.000  C
  H45      1.0000 0.40650  0.60050  0.30980  Biso   1.000  H
  H46      1.0000 0.59350  0.39950  0.69020  Biso   1.000  H
  C93      1.0000 0.29830  0.61840  0.22420  Biso   1.000  C
  C94      1.0000 0.70170  0.38160  0.77580  Biso   1.000  C
  H47      1.0000 0.30920  0.68580  0.20430  Biso   1.000  H
  H48      1.0000 0.69080  0.31420  0.79570  Biso   1.000  H
  C95      1.0000 0.40450  0.41290  0.38360  Biso   1.000  C
  C96      1.0000 0.59550  0.58710  0.61640  Biso   1.000  C
  O1       1.0000 0.54640  0.14120  0.41570  Biso   1.000  O
  O2       1.0000 0.45360  0.85880  0.58430  Biso   1.000  O
  O3       1.0000 0.64360  0.26730  0.39100  Biso   1.000  O
  O4       1.0000 0.35640  0.73270  0.60900  Biso   1.000  O
  O5       1.0000 0.61750  0.25080  0.58200  Biso   1.000  O
  O6       1.0000 0.38250  0.74920  0.41800  Biso   1.000  O
  O7       1.0000 0.51210  0.13410  0.57990  Biso   1.000  O
  O8       1.0000 0.48790  0.86590  0.42010  Biso   1.000  O
  O9       1.0000 0.38490  0.33250  0.56630  Biso   1.000  O
  O10      1.0000 0.61510  0.66750  0.43370  Biso   1.000  O
  O11      1.0000 0.24990  0.24760  0.59420  Biso   1.000  O
  O12      1.0000 0.75010  0.75240  0.40580  Biso   1.000  O
  O13      1.0000 0.39550  0.31830  0.39900  Biso   1.000  O
  O14      1.0000 0.60450  0.68170  0.60100  Biso   1.000  O
  O15      1.0000 0.45770  0.46260  0.42110  Biso   1.000  O
  O16      1.0000 0.54230  0.53740  0.57890  Biso   1.000  O
  N9       1.0000 0.20570  0.60410  0.50250  Biso   1.000  N
  N10      1.0000 0.79430  0.39590  0.49750  Biso   1.000  N
  C97      1.0000 0.14790  0.69640  0.52460  Biso   1.000  C
  C98      1.0000 0.85210  0.30360  0.47540  Biso   1.000  C
  H49      1.0000 0.18020  0.73820  0.55590  Biso   1.000  H
  H50      1.0000 0.81980  0.26180  0.44410  Biso   1.000  H
  C99      1.0000 0.04600  0.73270  0.50460  Biso   1.000  C
  C100     1.0000 0.95400  0.26730  0.49540  Biso   1.000  C
  H51      1.0000 0.01010  0.79840  0.52000  Biso   1.000  H
  H52      1.0000 0.98990  0.20160  0.48000  Biso   1.000  H
  C101     1.0000 0.99760  0.67020  0.46130  Biso   1.000  C
  C102     1.0000 0.00240  0.32980  0.53870  Biso   1.000  C
  H53      1.0000 0.92710  0.69170  0.44690  Biso   1.000  H
  H54      1.0000 0.07290  0.30830  0.55310  Biso   1.000  H
  C103     1.0000 0.05500  0.57400  0.43880  Biso   1.000  C
  C104     1.0000 0.94500  0.42600  0.56120  Biso   1.000  C
  H55      1.0000 0.02520  0.53000  0.40770  Biso   1.000  H
  H56      1.0000 0.97480  0.47000  0.59230  Biso   1.000  H
  C105     1.0000 0.15670  0.54620  0.46390  Biso   1.000  C
  C106     1.0000 0.84330  0.45380  0.53610  Biso   1.000  C
  H57      1.0000 0.19350  0.47960  0.45180  Biso   1.000  H
  H58      1.0000 0.80650  0.52040  0.54820  Biso   1.000  H
  N11      1.0000 0.56200  0.89730  0.07200  Biso   1.000  N
  N12      1.0000 0.43800  0.10270  0.92800  Biso   1.000  N
  C107     1.0000 0.51730  0.86770  0.14210  Biso   1.000  C
  C108     1.0000 0.48270  0.13230  0.85790  Biso   1.000  C
  H59      1.0000 0.45240  0.90660  0.16140  Biso   1.000  H
  H60      1.0000 0.54760  0.09340  0.83860  Biso   1.000  H
  C109     1.0000 0.56220  0.78200  0.18850  Biso   1.000  C
  C110     1.0000 0.43780  0.21800  0.81150  Biso   1.000  C
  H61      1.0000 0.52880  0.76260  0.23900  Biso   1.000  H
  H62      1.0000 0.47120  0.23740  0.76100  Biso   1.000  H
  C111     1.0000 0.65460  0.72560  0.16080  Biso   1.000  C
  C112     1.0000 0.34540  0.27440  0.83920  Biso   1.000  C
  H63      1.0000 0.68650  0.66600  0.19150  Biso   1.000  H
  H64      1.0000 0.31350  0.33400  0.80850  Biso   1.000  H
  C113     1.0000 0.70140  0.75610  0.08750  Biso   1.000  C
  C114     1.0000 0.29860  0.24390  0.91250  Biso   1.000  C
  H65      1.0000 0.76650  0.71820  0.06750  Biso   1.000  H
  H66      1.0000 0.23350  0.28180  0.93250  Biso   1.000  H
  C115     1.0000 0.65370  0.84110  0.04400  Biso   1.000  C
  C116     1.0000 0.34630  0.15890  0.95600  Biso   1.000  C
  H67      1.0000 0.68540  0.86120  0.99300  Biso   1.000  H
  H68      1.0000 0.31460  0.13880  0.00700  Biso   1.000  H
  N13      1.0000 0.53950  0.19120  0.07700  Biso   1.000  N
  N14      1.0000 0.46050  0.80880  0.92300  Biso   1.000  N
  C117     1.0000 0.53380  0.19820  0.15640  Biso   1.000  C
  C118     1.0000 0.46620  0.80180  0.84360  Biso   1.000  C
  H69      1.0000 0.54120  0.13600  0.19020  Biso   1.000  H
  H70      1.0000 0.45880  0.86400  0.80980  Biso   1.000  H
  C119     1.0000 0.51780  0.29010  0.19200  Biso   1.000  C
  C120     1.0000 0.48220  0.70990  0.80800  Biso   1.000  C
  H71      1.0000 0.51270  0.29130  0.24940  Biso   1.000  H
  H72      1.0000 0.48730  0.70870  0.75060  Biso   1.000  H
  C121     1.0000 0.50910  0.38090  0.14430  Biso   1.000  C
  C122     1.0000 0.49090  0.61910  0.85570  Biso   1.000  C
  H73      1.0000 0.49870  0.44500  0.16910  Biso   1.000  H
  H74      1.0000 0.50130  0.55500  0.83090  Biso   1.000  H
  C123     1.0000 0.51530  0.38080  0.06030  Biso   1.000  C
  C124     1.0000 0.48470  0.61920  0.93970  Biso   1.000  C
  H75      1.0000 0.50860  0.44290  0.02630  Biso   1.000  H
  H76      1.0000 0.49140  0.55710  0.97370  Biso   1.000  H
  C125     1.0000 0.53190  0.28460  0.02980  Biso   1.000  C
  C126     1.0000 0.46810  0.71540  0.97020  Biso   1.000  C
  H77      1.0000 0.53860  0.28140  0.97260  Biso   1.000  H
  H78      1.0000 0.46140  0.71860  0.02740  Biso   1.000  H
  C127     1.0000 0.93390  0.00210  0.44240  Biso   1.000  C
  C128     1.0000 0.06610  0.99790  0.55760  Biso   1.000  C
  H79      1.0000 0.89090  0.00190  0.39870  Biso   1.000  H
  H80      1.0000 0.10910  0.99810  0.60130  Biso   1.000  H
  C129     1.0000 0.89040  0.00330  0.51560  Biso   1.000  C
  C130     1.0000 0.10960  0.99670  0.48440  Biso   1.000  C
  H81      1.0000 0.81670  0.00710  0.52680  Biso   1.000  H
  H82      1.0000 0.18330  0.99290  0.47320  Biso   1.000  H
  C131     1.0000 0.04280  0.00120  0.42540  Biso   1.000  C
  C132     1.0000 0.95720  0.99880  0.57460  Biso   1.000  C
  H83      1.0000 0.06990  0.00380  0.37050  Biso   1.000  H
  H84      1.0000 0.93010  0.99620  0.62950  Biso   1.000  H
  O17      1.0000 0.33020  0.10450  0.49220  Biso   1.000  O
  O18      1.0000 0.66980  0.89550  0.50780  Biso   1.000  O
  H85      1.0000 0.30370  0.06280  0.48440  Biso   1.000  H
  H86      1.0000 0.69630  0.93720  0.51560  Biso   1.000  H
  H87      1.0000 0.28370  0.14960  0.51660  Biso   1.000  H
  H88      1.0000 0.71630  0.85040  0.48340  Biso   1.000  H
