data_image0
_cell_length_a       9.7949
_cell_length_b       9.9224
_cell_length_c       12.8401
_cell_angle_alpha    74.84
_cell_angle_beta     74.238
_cell_angle_gamma    85.782

_symmetry_space_group_name_H-M    "P 1"
_symmetry_int_tables_number       1

loop_
  _symmetry_equiv_pos_as_xyz
  'x, y, z'

loop_
  _atom_site_label
  _atom_site_occupancy
  _atom_site_fract_x
  _atom_site_fract_y
  _atom_site_fract_z
  _atom_site_thermal_displace_type
  _atom_site_B_iso_or_equiv
  _atom_site_type_symbol
  Mo1      1.0000 0.84543  0.11162  0.30623  Biso   1.000  Mo
  Mo2      1.0000 0.15457  0.88838  0.69377  Biso   1.000  Mo
  Mo3      1.0000 0.56439  0.87929  0.41528  Biso   1.000  Mo
  Mo4      1.0000 0.43561  0.12071  0.58472  Biso   1.000  Mo
  Mo5      1.0000 0.52497  0.24161  0.31770  Biso   1.000  Mo
  Mo6      1.0000 0.47503  0.75839  0.68230  Biso   1.000  Mo
  Mo7      1.0000 0.74680  0.99411  0.57879  Biso   1.000  Mo
  Mo8      1.0000 0.25320  0.00589  0.42121  Biso   1.000  Mo
  Cu1      1.0000 0.12147  0.35068  0.27951  Biso   1.000  Cu
  Cu2      1.0000 0.87853  0.64932  0.72049  Biso   1.000  Cu
  Cu3      1.0000 0.76891  0.51904  0.27011  Biso   1.000  Cu
  Cu4      1.0000 0.23109  0.48096  0.72989  Biso   1.000  Cu
  O1       1.0000 0.88970  0.27110  0.31940  Biso   1.000  O
  O2       1.0000 0.11030  0.72890  0.68060  Biso   1.000  O
  O3       1.0000 0.51800  0.73000  0.39490  Biso   1.000  O
  O4       1.0000 0.48200  0.27000  0.60510  Biso   1.000  O
  O5       1.0000 0.69920  0.18380  0.23210  Biso   1.000  O
  O6       1.0000 0.30080  0.81620  0.76790  Biso   1.000  O
  O7       1.0000 0.58200  0.38730  0.34250  Biso   1.000  O
  O8       1.0000 0.41800  0.61270  0.65750  Biso   1.000  O
  O9       1.0000 0.45590  0.01650  0.33270  Biso   1.000  O
  O10      1.0000 0.54410  0.98350  0.66730  Biso   1.000  O
  O11      1.0000 0.78490  0.14770  0.59880  Biso   1.000  O
  O12      1.0000 0.21510  0.85230  0.40120  Biso   1.000  O
  O13      1.0000 0.43790  0.30480  0.21750  Biso   1.000  O
  O14      1.0000 0.56210  0.69520  0.78250  Biso   1.000  O
  O15      1.0000 0.97770  0.07600  0.20090  Biso   1.000  O
  O16      1.0000 0.02230  0.92400  0.79910  Biso   1.000  O
  O17      1.0000 0.63490  0.80890  0.54790  Biso   1.000  O
  O18      1.0000 0.36510  0.19110  0.45210  Biso   1.000  O
  O19      1.0000 0.61630  0.08850  0.45450  Biso   1.000  O
  O20      1.0000 0.38370  0.91150  0.54550  Biso   1.000  O
  N1       1.0000 0.16420  0.39030  0.11910  Biso   1.000  N
  N2       1.0000 0.83580  0.60970  0.88090  Biso   1.000  N
  C1       1.0000 0.23820  0.31660  0.95030  Biso   1.000  C
  C2       1.0000 0.76180  0.68340  0.04970  Biso   1.000  C
  C3       1.0000 0.17130  0.54230  0.94330  Biso   1.000  C
  C4       1.0000 0.82870  0.45770  0.05670  Biso   1.000  C
  H1       1.0000 0.15630  0.63200  0.90280  Biso   1.000  H
  H2       1.0000 0.84370  0.36800  0.09720  Biso   1.000  H
  C5       1.0000 0.21380  0.29190  0.06430  Biso   1.000  C
  C6       1.0000 0.78620  0.70810  0.93570  Biso   1.000  C
  H3       1.0000 0.23240  0.20340  0.10480  Biso   1.000  H
  H4       1.0000 0.76760  0.79660  0.89520  Biso   1.000  H
  C7       1.0000 0.14880  0.51840  0.05500  Biso   1.000  C
  C8       1.0000 0.85120  0.48160  0.94500  Biso   1.000  C
  H5       1.0000 0.12200  0.59230  0.08840  Biso   1.000  H
  H6       1.0000 0.87800  0.40770  0.91160  Biso   1.000  H
  C9       1.0000 0.28670  0.20430  0.89120  Biso   1.000  C
  C10      1.0000 0.71330  0.79570  0.10880  Biso   1.000  C
  H7       1.0000 0.29770  0.24180  0.81250  Biso   1.000  H
  H8       1.0000 0.70230  0.75820  0.18750  Biso   1.000  H
  H9       1.0000 0.21780  0.13070  0.91910  Biso   1.000  H
  H10      1.0000 0.78220  0.86930  0.08090  Biso   1.000  H
  H11      1.0000 0.37600  0.16790  0.90380  Biso   1.000  H
  H12      1.0000 0.62400  0.83210  0.09620  Biso   1.000  H
  O21      1.0000 0.73030  0.91930  0.31950  Biso   1.000  O
  O22      1.0000 0.26970  0.08070  0.68050  Biso   1.000  O
  O23      1.0000 0.87680  0.99250  0.43960  Biso   1.000  O
  O24      1.0000 0.12320  0.00750  0.56040  Biso   1.000  O
  N3       1.0000 0.19250  0.44510  0.60080  Biso   1.000  N
  N4       1.0000 0.80750  0.55490  0.39920  Biso   1.000  N
  N5       1.0000 0.13750  0.40500  0.41010  Biso   1.000  N
  N6       1.0000 0.86250  0.59500  0.58990  Biso   1.000  N
  C11      1.0000 0.23010  0.50050  0.40470  Biso   1.000  C
  C12      1.0000 0.76990  0.49950  0.59530  Biso   1.000  C
  C13      1.0000 0.25900  0.51860  0.49980  Biso   1.000  C
  C14      1.0000 0.74100  0.48140  0.50020  Biso   1.000  C
  H13      1.0000 0.32670  0.58390  0.49270  Biso   1.000  H
  H14      1.0000 0.67330  0.41610  0.50730  Biso   1.000  H
  N7       1.0000 0.21360  0.44480  0.88870  Biso   1.000  N
  N8       1.0000 0.78640  0.55520  0.11130  Biso   1.000  N
  C15      1.0000 0.29880  0.59330  0.29090  Biso   1.000  C
  C16      1.0000 0.70120  0.40670  0.70910  Biso   1.000  C
  H15      1.0000 0.26700  0.56660  0.23470  Biso   1.000  H
  H16      1.0000 0.73300  0.43340  0.76530  Biso   1.000  H
  H17      1.0000 0.40010  0.58350  0.27580  Biso   1.000  H
  H18      1.0000 0.59990  0.41650  0.72420  Biso   1.000  H
  H19      1.0000 0.27300  0.68880  0.28990  Biso   1.000  H
  H20      1.0000 0.72700  0.31120  0.71010  Biso   1.000  H
  O25      1.0000 0.81610  0.86650  0.66970  Biso   1.000  O
  O26      1.0000 0.18390  0.13350  0.33030  Biso   1.000  O
  C17      1.0000 0.09470  0.34950  0.60770  Biso   1.000  C
  C18      1.0000 0.90530  0.65050  0.39230  Biso   1.000  C
  H21      1.0000 0.04420  0.29750  0.67730  Biso   1.000  H
  H22      1.0000 0.95580  0.70250  0.32270  Biso   1.000  H
  C19      1.0000 0.07080  0.32990  0.51110  Biso   1.000  C
  C20      1.0000 0.92920  0.67010  0.48890  Biso   1.000  C
  H23      1.0000 0.00620  0.26240  0.51710  Biso   1.000  H
  H24      1.0000 0.99380  0.73760  0.48290  Biso   1.000  H
  O27      1.0000 0.07040  0.82590  0.12390  Biso   1.000  O
  O28      1.0000 0.92960  0.17410  0.87610  Biso   1.000  O
  O29      1.0000 0.34450  0.81150  0.99160  Biso   1.000  O
  O30      1.0000 0.65550  0.18850  0.00840  Biso   1.000  O
  O31      1.0000 0.42400  0.00900  0.10010  Biso   1.000  O
  O32      1.0000 0.57600  0.99100  0.89990  Biso   1.000  O
  O33      1.0000 0.47700  0.54100  0.01900  Biso   1.000  O
  O34      1.0000 0.52300  0.45900  0.98100  Biso   1.000  O
