data_image0
_cell_length_a       9.917
_cell_length_b       8.7409
_cell_length_c       22.499
_cell_angle_alpha    90
_cell_angle_beta     107.43
_cell_angle_gamma    90

_symmetry_space_group_name_H-M    "P 1"
_symmetry_int_tables_number       1

loop_
  _symmetry_equiv_pos_as_xyz
  'x, y, z'

loop_
  _atom_site_label
  _atom_site_occupancy
  _atom_site_fract_x
  _atom_site_fract_y
  _atom_site_fract_z
  _atom_site_thermal_displace_type
  _atom_site_B_iso_or_equiv
  _atom_site_type_symbol
  C1       1.0000 0.83090  0.51540  0.27731  Biso   1.000  C
  C2       1.0000 0.16910  0.01540  0.22269  Biso   1.000  C
  C3       1.0000 0.16910  0.48460  0.72269  Biso   1.000  C
  C4       1.0000 0.83090  0.98460  0.77731  Biso   1.000  C
  H1       1.0000 0.74160  0.55370  0.25690  Biso   1.000  H
  H2       1.0000 0.25840  0.05370  0.24310  Biso   1.000  H
  H3       1.0000 0.25840  0.44630  0.74310  Biso   1.000  H
  H4       1.0000 0.74160  0.94630  0.75690  Biso   1.000  H
  C5       1.0000 0.89600  0.56290  0.33689  Biso   1.000  C
  C6       1.0000 0.10400  0.06290  0.16311  Biso   1.000  C
  C7       1.0000 0.10400  0.43710  0.66311  Biso   1.000  C
  C8       1.0000 0.89600  0.93710  0.83689  Biso   1.000  C
  H5       1.0000 0.85130  0.63180  0.35630  Biso   1.000  H
  H6       1.0000 0.14870  0.13180  0.14370  Biso   1.000  H
  H7       1.0000 0.14870  0.36820  0.64370  Biso   1.000  H
  H8       1.0000 0.85130  0.86820  0.85630  Biso   1.000  H
  C9       1.0000 0.02930  0.50730  0.36812  Biso   1.000  C
  C10      1.0000 0.97070  0.00730  0.13188  Biso   1.000  C
  C11      1.0000 0.97070  0.49270  0.63188  Biso   1.000  C
  C12      1.0000 0.02930  0.99270  0.86812  Biso   1.000  C
  C13      1.0000 0.09040  0.40470  0.33735  Biso   1.000  C
  C14      1.0000 0.90960  0.90470  0.16265  Biso   1.000  C
  C15      1.0000 0.90960  0.59530  0.66265  Biso   1.000  C
  C16      1.0000 0.09040  0.09530  0.83735  Biso   1.000  C
  H9       1.0000 0.17950  0.36420  0.35680  Biso   1.000  H
  H10      1.0000 0.82050  0.86420  0.14320  Biso   1.000  H
  H11      1.0000 0.82050  0.63580  0.64320  Biso   1.000  H
  H12      1.0000 0.17950  0.13580  0.85680  Biso   1.000  H
  C17      1.0000 0.01770  0.36350  0.27772  Biso   1.000  C
  C18      1.0000 0.98230  0.86350  0.22228  Biso   1.000  C
  C19      1.0000 0.98230  0.63650  0.72228  Biso   1.000  C
  C20      1.0000 0.01770  0.13650  0.77772  Biso   1.000  C
  H13      1.0000 0.06000  0.29450  0.25730  Biso   1.000  H
  H14      1.0000 0.94000  0.79450  0.24270  Biso   1.000  H
  H15      1.0000 0.94000  0.70550  0.74270  Biso   1.000  H
  H16      1.0000 0.06000  0.20550  0.75730  Biso   1.000  H
  C21      1.0000 0.56910  0.22730  0.55716  Biso   1.000  C
  C22      1.0000 0.43090  0.72730  0.94284  Biso   1.000  C
  C23      1.0000 0.43090  0.77270  0.44284  Biso   1.000  C
  C24      1.0000 0.56910  0.27270  0.05716  Biso   1.000  C
  H17      1.0000 0.59810  0.14740  0.53660  Biso   1.000  H
  H18      1.0000 0.40190  0.64740  0.96340  Biso   1.000  H
  H19      1.0000 0.40190  0.85260  0.46340  Biso   1.000  H
  H20      1.0000 0.59810  0.35260  0.03660  Biso   1.000  H
  C25      1.0000 0.45310  0.31040  0.52532  Biso   1.000  C
  C26      1.0000 0.54690  0.81040  0.97468  Biso   1.000  C
  C27      1.0000 0.54690  0.68960  0.47468  Biso   1.000  C
  C28      1.0000 0.45310  0.18960  0.02532  Biso   1.000  C
  H21      1.0000 0.40530  0.28720  0.48400  Biso   1.000  H
  H22      1.0000 0.59470  0.78720  0.01600  Biso   1.000  H
  H23      1.0000 0.59470  0.71280  0.51600  Biso   1.000  H
  H24      1.0000 0.40530  0.21280  0.98400  Biso   1.000  H
  C29      1.0000 0.40770  0.42930  0.55511  Biso   1.000  C
  C30      1.0000 0.59230  0.92930  0.94489  Biso   1.000  C
  C31      1.0000 0.59230  0.57070  0.44489  Biso   1.000  C
  C32      1.0000 0.40770  0.07070  0.05511  Biso   1.000  C
  C33      1.0000 0.48270  0.45920  0.61641  Biso   1.000  C
  C34      1.0000 0.51730  0.95920  0.88359  Biso   1.000  C
  C35      1.0000 0.51730  0.54080  0.38359  Biso   1.000  C
  C36      1.0000 0.48270  0.04080  0.11641  Biso   1.000  C
  H25      1.0000 0.45570  0.53810  0.63820  Biso   1.000  H
  H26      1.0000 0.54430  0.03810  0.86180  Biso   1.000  H
  H27      1.0000 0.54430  0.46190  0.36180  Biso   1.000  H
  H28      1.0000 0.45570  0.96190  0.13820  Biso   1.000  H
  C37      1.0000 0.59830  0.36960  0.64455  Biso   1.000  C
  C38      1.0000 0.40170  0.86960  0.85545  Biso   1.000  C
  C39      1.0000 0.40170  0.63040  0.35545  Biso   1.000  C
  C40      1.0000 0.59830  0.13040  0.14455  Biso   1.000  C
  H29      1.0000 0.64820  0.39040  0.68580  Biso   1.000  H
  H30      1.0000 0.35180  0.89040  0.81420  Biso   1.000  H
  H31      1.0000 0.35180  0.60960  0.31420  Biso   1.000  H
  H32      1.0000 0.64820  0.10960  0.18580  Biso   1.000  H
  C41      1.0000 0.04960  0.96820  0.63420  Biso   1.000  C
  C42      1.0000 0.95040  0.46820  0.86580  Biso   1.000  C
  C43      1.0000 0.95040  0.03180  0.36580  Biso   1.000  C
  C44      1.0000 0.04960  0.53180  0.13420  Biso   1.000  C
  H33      1.0000 0.09940  0.01110  0.67220  Biso   1.000  H
  H34      1.0000 0.90060  0.51110  0.82780  Biso   1.000  H
  H35      1.0000 0.90060  0.98890  0.32780  Biso   1.000  H
  H36      1.0000 0.09940  0.48890  0.17220  Biso   1.000  H
  C45      1.0000 0.11910  0.86640  0.60714  Biso   1.000  C
  C46      1.0000 0.88090  0.36640  0.89286  Biso   1.000  C
  C47      1.0000 0.88090  0.13360  0.39286  Biso   1.000  C
  C48      1.0000 0.11910  0.63360  0.10714  Biso   1.000  C
  H37      1.0000 0.21240  0.83930  0.62710  Biso   1.000  H
  H38      1.0000 0.78760  0.33930  0.87290  Biso   1.000  H
  H39      1.0000 0.78760  0.16070  0.37290  Biso   1.000  H
  H40      1.0000 0.21240  0.66070  0.12710  Biso   1.000  H
  C49      1.0000 0.04740  0.80500  0.54967  Biso   1.000  C
  C50      1.0000 0.95260  0.30500  0.95033  Biso   1.000  C
  C51      1.0000 0.95260  0.19500  0.45033  Biso   1.000  C
  C52      1.0000 0.04740  0.69500  0.04967  Biso   1.000  C
  C53      1.0000 0.90940  0.85070  0.52211  Biso   1.000  C
  C54      1.0000 0.09060  0.35070  0.97789  Biso   1.000  C
  C55      1.0000 0.09060  0.14930  0.47789  Biso   1.000  C
  C56      1.0000 0.90940  0.64930  0.02211  Biso   1.000  C
  H41      1.0000 0.85920  0.81430  0.48290  Biso   1.000  H
  H42      1.0000 0.14080  0.31430  0.01710  Biso   1.000  H
  H43      1.0000 0.14080  0.18570  0.51710  Biso   1.000  H
  H44      1.0000 0.85920  0.68570  0.98290  Biso   1.000  H
  C57      1.0000 0.84740  0.94980  0.55297  Biso   1.000  C
  C58      1.0000 0.15260  0.44980  0.94703  Biso   1.000  C
  C59      1.0000 0.15260  0.05020  0.44703  Biso   1.000  C
  C60      1.0000 0.84740  0.55020  0.05297  Biso   1.000  C
  H45      1.0000 0.75380  0.97750  0.53420  Biso   1.000  H
  H46      1.0000 0.24620  0.47750  0.96580  Biso   1.000  H
  H47      1.0000 0.24620  0.02250  0.46580  Biso   1.000  H
  H48      1.0000 0.75380  0.52250  0.03420  Biso   1.000  H
  C61      1.0000 0.10210  0.55230  0.43321  Biso   1.000  C
  C62      1.0000 0.89790  0.05230  0.06679  Biso   1.000  C
  C63      1.0000 0.89790  0.44770  0.56679  Biso   1.000  C
  C64      1.0000 0.10210  0.94770  0.93321  Biso   1.000  C
  C65      1.0000 0.28060  0.51650  0.52141  Biso   1.000  C
  C66      1.0000 0.71940  0.01650  0.97859  Biso   1.000  C
  C67      1.0000 0.71940  0.48350  0.47859  Biso   1.000  C
  C68      1.0000 0.28060  0.98350  0.02141  Biso   1.000  C
  C69      1.0000 0.11220  0.68980  0.51893  Biso   1.000  C
  C70      1.0000 0.88780  0.18980  0.98107  Biso   1.000  C
  C71      1.0000 0.88780  0.31020  0.48107  Biso   1.000  C
  C72      1.0000 0.11220  0.81020  0.01893  Biso   1.000  C
  Cu1      1.0000 0.80144  0.38069  0.15691  Biso   1.000  Cu
  Cu2      1.0000 0.19856  0.88069  0.34309  Biso   1.000  Cu
  Cu3      1.0000 0.19856  0.61931  0.84309  Biso   1.000  Cu
  Cu4      1.0000 0.80144  0.11931  0.65691  Biso   1.000  Cu
  N1       1.0000 0.88920  0.41690  0.24703  Biso   1.000  N
  N2       1.0000 0.11080  0.91690  0.25297  Biso   1.000  N
  N3       1.0000 0.11080  0.58310  0.75297  Biso   1.000  N
  N4       1.0000 0.88920  0.08310  0.74703  Biso   1.000  N
  N5       1.0000 0.64320  0.25540  0.61653  Biso   1.000  N
  N6       1.0000 0.35680  0.75540  0.88347  Biso   1.000  N
  N7       1.0000 0.35680  0.74460  0.38347  Biso   1.000  N
  N8       1.0000 0.64320  0.24460  0.11653  Biso   1.000  N
  N9       1.0000 0.91480  0.00910  0.60904  Biso   1.000  N
  N10      1.0000 0.08520  0.50910  0.89096  Biso   1.000  N
  N11      1.0000 0.08520  0.99090  0.39096  Biso   1.000  N
  N12      1.0000 0.91480  0.49090  0.10904  Biso   1.000  N
  N13      1.0000 0.04220  0.65770  0.45964  Biso   1.000  N
  N14      1.0000 0.95780  0.15770  0.04036  Biso   1.000  N
  N15      1.0000 0.95780  0.34230  0.54036  Biso   1.000  N
  N16      1.0000 0.04220  0.84230  0.95964  Biso   1.000  N
  N17      1.0000 0.22210  0.47920  0.46175  Biso   1.000  N
  N18      1.0000 0.77790  0.97920  0.03825  Biso   1.000  N
  N19      1.0000 0.77790  0.52080  0.53825  Biso   1.000  N
  N20      1.0000 0.22210  0.02080  0.96175  Biso   1.000  N
  N21      1.0000 0.23060  0.62150  0.55228  Biso   1.000  N
  N22      1.0000 0.76940  0.12150  0.94772  Biso   1.000  N
  N23      1.0000 0.76940  0.37850  0.44772  Biso   1.000  N
  N24      1.0000 0.23060  0.87850  0.05228  Biso   1.000  N
  N25      1.0000 0.52050  0.60840  0.13120  Biso   1.000  N
  N26      1.0000 0.47950  0.10840  0.36880  Biso   1.000  N
  N27      1.0000 0.47950  0.39160  0.86880  Biso   1.000  N
  N28      1.0000 0.52050  0.89160  0.63120  Biso   1.000  N
  O1       1.0000 0.64350  0.63010  0.13251  Biso   1.000  O
  O2       1.0000 0.35650  0.13010  0.36749  Biso   1.000  O
  O3       1.0000 0.35650  0.36990  0.86749  Biso   1.000  O
  O4       1.0000 0.64350  0.86990  0.63251  Biso   1.000  O
  O5       1.0000 0.48780  0.62170  0.18018  Biso   1.000  O
  O6       1.0000 0.51220  0.12170  0.31982  Biso   1.000  O
  O7       1.0000 0.51220  0.37830  0.81982  Biso   1.000  O
  O8       1.0000 0.48780  0.87830  0.68018  Biso   1.000  O
  O9       1.0000 0.43090  0.57210  0.08320  Biso   1.000  O
  O10      1.0000 0.56910  0.07210  0.41680  Biso   1.000  O
  O11      1.0000 0.56910  0.42790  0.91680  Biso   1.000  O
  O12      1.0000 0.43090  0.92790  0.58320  Biso   1.000  O
  O13      1.0000 0.65930  0.86300  0.26970  Biso   1.000  O
  O14      1.0000 0.34070  0.36300  0.23030  Biso   1.000  O
  O15      1.0000 0.34070  0.13700  0.73030  Biso   1.000  O
  O16      1.0000 0.65930  0.63700  0.76970  Biso   1.000  O
  H49      1.0000 0.58400  0.81710  0.24170  Biso   1.000  H
  H50      1.0000 0.41600  0.31710  0.25830  Biso   1.000  H
  H51      1.0000 0.41600  0.18290  0.75830  Biso   1.000  H
  H52      1.0000 0.58400  0.68290  0.74170  Biso   1.000  H
  H53      1.0000 0.63470  0.95800  0.28040  Biso   1.000  H
  H54      1.0000 0.36530  0.45800  0.21960  Biso   1.000  H
  H55      1.0000 0.36530  0.04200  0.71960  Biso   1.000  H
  H56      1.0000 0.63470  0.54200  0.78040  Biso   1.000  H
