data_image0
_cell_length_a       23.47
_cell_length_b       22.051
_cell_length_c       52.645
_cell_angle_alpha    90
_cell_angle_beta     90
_cell_angle_gamma    90

_symmetry_space_group_name_H-M    "P 1"
_symmetry_int_tables_number       1

loop_
  _symmetry_equiv_pos_as_xyz
  'x, y, z'

loop_
  _atom_site_label
  _atom_site_occupancy
  _atom_site_fract_x
  _atom_site_fract_y
  _atom_site_fract_z
  _atom_site_thermal_displace_type
  _atom_site_B_iso_or_equiv
  _atom_site_type_symbol
  Cu1      1.0000 0.46416  0.92484  0.13644  Biso   1.000  Cu
  Cu2      1.0000 0.03584  0.07516  0.63644  Biso   1.000  Cu
  Cu3      1.0000 0.96416  0.57516  0.86356  Biso   1.000  Cu
  Cu4      1.0000 0.53584  0.42484  0.36356  Biso   1.000  Cu
  Cu5      1.0000 0.53584  0.07516  0.86356  Biso   1.000  Cu
  Cu6      1.0000 0.96416  0.92484  0.36356  Biso   1.000  Cu
  Cu7      1.0000 0.03584  0.42484  0.13644  Biso   1.000  Cu
  Cu8      1.0000 0.46416  0.57516  0.63644  Biso   1.000  Cu
  C1       1.0000 0.29264  0.99331  0.97558  Biso   1.000  C
  C2       1.0000 0.20736  0.00669  0.47558  Biso   1.000  C
  C3       1.0000 0.79264  0.50669  0.02442  Biso   1.000  C
  C4       1.0000 0.70736  0.49331  0.52442  Biso   1.000  C
  C5       1.0000 0.70736  0.00669  0.02442  Biso   1.000  C
  C6       1.0000 0.79264  0.99331  0.52442  Biso   1.000  C
  C7       1.0000 0.20736  0.49331  0.97558  Biso   1.000  C
  C8       1.0000 0.29264  0.50669  0.47558  Biso   1.000  C
  Cu9      1.0000 0.44759  0.72608  0.10342  Biso   1.000  Cu
  Cu10     1.0000 0.05241  0.27392  0.60342  Biso   1.000  Cu
  Cu11     1.0000 0.94759  0.77392  0.89658  Biso   1.000  Cu
  Cu12     1.0000 0.55241  0.22608  0.39658  Biso   1.000  Cu
  Cu13     1.0000 0.55241  0.27392  0.89658  Biso   1.000  Cu
  Cu14     1.0000 0.94759  0.72608  0.39658  Biso   1.000  Cu
  Cu15     1.0000 0.05241  0.22608  0.10342  Biso   1.000  Cu
  Cu16     1.0000 0.44759  0.77392  0.60342  Biso   1.000  Cu
  C9       1.0000 0.24750  0.94938  0.97937  Biso   1.000  C
  C10      1.0000 0.25250  0.05062  0.47937  Biso   1.000  C
  C11      1.0000 0.74750  0.55062  0.02063  Biso   1.000  C
  C12      1.0000 0.75250  0.44938  0.52063  Biso   1.000  C
  C13      1.0000 0.75250  0.05062  0.02063  Biso   1.000  C
  C14      1.0000 0.74750  0.94938  0.52063  Biso   1.000  C
  C15      1.0000 0.25250  0.44938  0.97937  Biso   1.000  C
  C16      1.0000 0.24750  0.55062  0.47937  Biso   1.000  C
  C17      1.0000 0.24403  0.99262  0.95925  Biso   1.000  C
  C18      1.0000 0.25597  0.00738  0.45925  Biso   1.000  C
  C19      1.0000 0.74403  0.50738  0.04075  Biso   1.000  C
  C20      1.0000 0.75597  0.49262  0.54075  Biso   1.000  C
  C21      1.0000 0.75597  0.00738  0.04075  Biso   1.000  C
  C22      1.0000 0.74403  0.99262  0.54075  Biso   1.000  C
  C23      1.0000 0.25597  0.49262  0.95925  Biso   1.000  C
  C24      1.0000 0.24403  0.50738  0.45925  Biso   1.000  C
  C25      1.0000 0.34357  0.01577  0.98336  Biso   1.000  C
  C26      1.0000 0.15643  0.98423  0.48336  Biso   1.000  C
  C27      1.0000 0.84357  0.48423  0.01664  Biso   1.000  C
  C28      1.0000 0.65643  0.51577  0.51664  Biso   1.000  C
  C29      1.0000 0.65643  0.98423  0.01664  Biso   1.000  C
  C30      1.0000 0.84357  0.01577  0.51664  Biso   1.000  C
  C31      1.0000 0.15643  0.51577  0.98336  Biso   1.000  C
  C32      1.0000 0.34357  0.48423  0.48336  Biso   1.000  C
  C33      1.0000 0.22599  0.90205  0.99231  Biso   1.000  C
  C34      1.0000 0.27401  0.09795  0.49231  Biso   1.000  C
  C35      1.0000 0.72599  0.59795  0.00769  Biso   1.000  C
  C36      1.0000 0.77401  0.40205  0.50769  Biso   1.000  C
  C37      1.0000 0.77401  0.09795  0.00769  Biso   1.000  C
  C38      1.0000 0.72599  0.90205  0.50769  Biso   1.000  C
  C39      1.0000 0.27401  0.40205  0.99231  Biso   1.000  C
  C40      1.0000 0.22599  0.59795  0.49231  Biso   1.000  C
  C41      1.0000 0.21457  0.01816  0.93971  Biso   1.000  C
  C42      1.0000 0.28543  0.98184  0.43971  Biso   1.000  C
  C43      1.0000 0.71457  0.48184  0.06029  Biso   1.000  C
  C44      1.0000 0.78543  0.51816  0.56029  Biso   1.000  C
  C45      1.0000 0.78543  0.98184  0.06029  Biso   1.000  C
  C46      1.0000 0.71457  0.01816  0.56029  Biso   1.000  C
  C47      1.0000 0.28543  0.51816  0.93971  Biso   1.000  C
  C48      1.0000 0.21457  0.48184  0.43971  Biso   1.000  C
  C49      1.0000 0.44274  0.14267  0.96544  Biso   1.000  C
  C50      1.0000 0.05726  0.85733  0.46544  Biso   1.000  C
  C51      1.0000 0.94274  0.35733  0.03456  Biso   1.000  C
  C52      1.0000 0.55726  0.64267  0.53456  Biso   1.000  C
  C53      1.0000 0.55726  0.85733  0.03456  Biso   1.000  C
  C54      1.0000 0.94274  0.14267  0.53456  Biso   1.000  C
  C55      1.0000 0.05726  0.64267  0.96544  Biso   1.000  C
  C56      1.0000 0.44274  0.35733  0.46544  Biso   1.000  C
  H1       1.0000 0.46770  0.17070  0.97340  Biso   1.000  H
  H2       1.0000 0.03230  0.82930  0.47340  Biso   1.000  H
  H3       1.0000 0.96770  0.32930  0.02660  Biso   1.000  H
  H4       1.0000 0.53230  0.67070  0.52660  Biso   1.000  H
  H5       1.0000 0.53230  0.82930  0.02660  Biso   1.000  H
  H6       1.0000 0.96770  0.17070  0.52660  Biso   1.000  H
  H7       1.0000 0.03230  0.67070  0.97340  Biso   1.000  H
  H8       1.0000 0.46770  0.32930  0.47340  Biso   1.000  H
  C57      1.0000 0.37615  0.05928  0.96820  Biso   1.000  C
  C58      1.0000 0.12385  0.94072  0.46820  Biso   1.000  C
  C59      1.0000 0.87615  0.44072  0.03180  Biso   1.000  C
  C60      1.0000 0.62385  0.55928  0.53180  Biso   1.000  C
  C61      1.0000 0.62385  0.94072  0.03180  Biso   1.000  C
  C62      1.0000 0.87615  0.05928  0.53180  Biso   1.000  C
  C63      1.0000 0.12385  0.55928  0.96820  Biso   1.000  C
  C64      1.0000 0.37615  0.44072  0.46820  Biso   1.000  C
  C65      1.0000 0.37165  0.05914  0.94153  Biso   1.000  C
  C66      1.0000 0.12835  0.94086  0.44153  Biso   1.000  C
  C67      1.0000 0.87165  0.44086  0.05847  Biso   1.000  C
  C68      1.0000 0.62835  0.55914  0.55847  Biso   1.000  C
  C69      1.0000 0.62835  0.94086  0.05847  Biso   1.000  C
  C70      1.0000 0.87165  0.05914  0.55847  Biso   1.000  C
  C71      1.0000 0.12835  0.55914  0.94153  Biso   1.000  C
  C72      1.0000 0.37165  0.44086  0.44153  Biso   1.000  C
  H9       1.0000 0.34830  0.02980  0.93340  Biso   1.000  H
  H10      1.0000 0.15170  0.97020  0.43340  Biso   1.000  H
  H11      1.0000 0.84830  0.47020  0.06660  Biso   1.000  H
  H12      1.0000 0.65170  0.52980  0.56660  Biso   1.000  H
  H13      1.0000 0.65170  0.97020  0.06660  Biso   1.000  H
  H14      1.0000 0.84830  0.02980  0.56660  Biso   1.000  H
  H15      1.0000 0.15170  0.52980  0.93340  Biso   1.000  H
  H16      1.0000 0.34830  0.47020  0.43340  Biso   1.000  H
  C73      1.0000 0.40110  0.10149  0.92701  Biso   1.000  C
  C74      1.0000 0.09890  0.89851  0.42701  Biso   1.000  C
  C75      1.0000 0.90110  0.39851  0.07299  Biso   1.000  C
  C76      1.0000 0.59890  0.60149  0.57299  Biso   1.000  C
  C77      1.0000 0.59890  0.89851  0.07299  Biso   1.000  C
  C78      1.0000 0.90110  0.10149  0.57299  Biso   1.000  C
  C79      1.0000 0.09890  0.60149  0.92701  Biso   1.000  C
  C80      1.0000 0.40110  0.39851  0.42701  Biso   1.000  C
  H17      1.0000 0.39680  0.10210  0.90910  Biso   1.000  H
  H18      1.0000 0.10320  0.89790  0.40910  Biso   1.000  H
  H19      1.0000 0.89680  0.39790  0.09090  Biso   1.000  H
  H20      1.0000 0.60320  0.60210  0.59090  Biso   1.000  H
  H21      1.0000 0.60320  0.89790  0.09090  Biso   1.000  H
  H22      1.0000 0.89680  0.10210  0.59090  Biso   1.000  H
  H23      1.0000 0.10320  0.60210  0.90910  Biso   1.000  H
  H24      1.0000 0.39680  0.39790  0.40910  Biso   1.000  H
  C81      1.0000 0.43675  0.14269  0.93883  Biso   1.000  C
  C82      1.0000 0.06325  0.85731  0.43883  Biso   1.000  C
  C83      1.0000 0.93675  0.35731  0.06117  Biso   1.000  C
  C84      1.0000 0.56325  0.64269  0.56117  Biso   1.000  C
  C85      1.0000 0.56325  0.85731  0.06117  Biso   1.000  C
  C86      1.0000 0.93675  0.14269  0.56117  Biso   1.000  C
  C87      1.0000 0.06325  0.64269  0.93883  Biso   1.000  C
  C88      1.0000 0.43675  0.35731  0.43883  Biso   1.000  C
  C89      1.0000 0.46719  0.18589  0.92367  Biso   1.000  C
  C90      1.0000 0.03281  0.81411  0.42367  Biso   1.000  C
  C91      1.0000 0.96719  0.31411  0.07633  Biso   1.000  C
  C92      1.0000 0.53281  0.68589  0.57633  Biso   1.000  C
  C93      1.0000 0.53281  0.81411  0.07633  Biso   1.000  C
  C94      1.0000 0.96719  0.18589  0.57633  Biso   1.000  C
  C95      1.0000 0.03281  0.68589  0.92367  Biso   1.000  C
  C96      1.0000 0.46719  0.31411  0.42367  Biso   1.000  C
  N1       1.0000 0.49238  0.21941  0.91170  Biso   1.000  N
  N2       1.0000 0.00762  0.78059  0.41170  Biso   1.000  N
  N3       1.0000 0.99238  0.28059  0.08830  Biso   1.000  N
  N4       1.0000 0.50762  0.71941  0.58830  Biso   1.000  N
  N5       1.0000 0.50762  0.78059  0.08830  Biso   1.000  N
  N6       1.0000 0.99238  0.21941  0.58830  Biso   1.000  N
  N7       1.0000 0.00762  0.71941  0.91170  Biso   1.000  N
  N8       1.0000 0.49238  0.28059  0.41170  Biso   1.000  N
  C97      1.0000 0.41241  0.10217  0.97975  Biso   1.000  C
  C98      1.0000 0.08759  0.89783  0.47975  Biso   1.000  C
  C99      1.0000 0.91241  0.39783  0.02025  Biso   1.000  C
  C100     1.0000 0.58759  0.60217  0.52025  Biso   1.000  C
  C101     1.0000 0.58759  0.89783  0.02025  Biso   1.000  C
  C102     1.0000 0.91241  0.10217  0.52025  Biso   1.000  C
  C103     1.0000 0.08759  0.60217  0.97975  Biso   1.000  C
  C104     1.0000 0.41241  0.39783  0.47975  Biso   1.000  C
  H25      1.0000 0.41580  0.10290  0.99770  Biso   1.000  H
  H26      1.0000 0.08420  0.89710  0.49770  Biso   1.000  H
  H27      1.0000 0.91580  0.39710  0.00230  Biso   1.000  H
  H28      1.0000 0.58420  0.60290  0.50230  Biso   1.000  H
  H29      1.0000 0.58420  0.89710  0.00230  Biso   1.000  H
  H30      1.0000 0.91580  0.10290  0.50230  Biso   1.000  H
  H31      1.0000 0.08420  0.60290  0.99770  Biso   1.000  H
  H32      1.0000 0.41580  0.39710  0.49770  Biso   1.000  H
  C105     1.0000 0.36506  0.99649  0.00871  Biso   1.000  C
  C106     1.0000 0.13494  0.00351  0.50871  Biso   1.000  C
  C107     1.0000 0.86506  0.50351  0.99129  Biso   1.000  C
  C108     1.0000 0.63494  0.49649  0.49129  Biso   1.000  C
  C109     1.0000 0.63494  0.00351  0.99129  Biso   1.000  C
  C110     1.0000 0.86506  0.99649  0.49129  Biso   1.000  C
  C111     1.0000 0.13494  0.49649  0.00871  Biso   1.000  C
  C112     1.0000 0.36506  0.50351  0.50871  Biso   1.000  C
  C113     1.0000 0.42198  0.97982  0.01241  Biso   1.000  C
  C114     1.0000 0.07802  0.02018  0.51241  Biso   1.000  C
  C115     1.0000 0.92198  0.52018  0.98759  Biso   1.000  C
  C116     1.0000 0.57802  0.47982  0.48759  Biso   1.000  C
  C117     1.0000 0.57802  0.02018  0.98759  Biso   1.000  C
  C118     1.0000 0.92198  0.97982  0.48759  Biso   1.000  C
  C119     1.0000 0.07802  0.47982  0.01241  Biso   1.000  C
  C120     1.0000 0.42198  0.52018  0.51241  Biso   1.000  C
  H33      1.0000 0.44740  0.97970  0.99840  Biso   1.000  H
  H34      1.0000 0.05260  0.02030  0.49840  Biso   1.000  H
  H35      1.0000 0.94740  0.52030  0.00160  Biso   1.000  H
  H36      1.0000 0.55260  0.47970  0.50160  Biso   1.000  H
  H37      1.0000 0.55260  0.02030  0.00160  Biso   1.000  H
  H38      1.0000 0.94740  0.97970  0.50160  Biso   1.000  H
  H39      1.0000 0.05260  0.47970  0.99840  Biso   1.000  H
  H40      1.0000 0.44740  0.52030  0.49840  Biso   1.000  H
  C121     1.0000 0.44173  0.96343  0.03625  Biso   1.000  C
  C122     1.0000 0.05827  0.03657  0.53625  Biso   1.000  C
  C123     1.0000 0.94173  0.53657  0.96375  Biso   1.000  C
  C124     1.0000 0.55827  0.46343  0.46375  Biso   1.000  C
  C125     1.0000 0.55827  0.03657  0.96375  Biso   1.000  C
  C126     1.0000 0.94173  0.96343  0.46375  Biso   1.000  C
  C127     1.0000 0.05827  0.46343  0.03625  Biso   1.000  C
  C128     1.0000 0.44173  0.53657  0.53625  Biso   1.000  C
  H41      1.0000 0.48050  0.95260  0.03860  Biso   1.000  H
  H42      1.0000 0.01950  0.04740  0.53860  Biso   1.000  H
  H43      1.0000 0.98050  0.54740  0.96140  Biso   1.000  H
  H44      1.0000 0.51950  0.45260  0.46140  Biso   1.000  H
  H45      1.0000 0.51950  0.04740  0.96140  Biso   1.000  H
  H46      1.0000 0.98050  0.95260  0.46140  Biso   1.000  H
  H47      1.0000 0.01950  0.45260  0.03860  Biso   1.000  H
  H48      1.0000 0.48050  0.54740  0.53860  Biso   1.000  H
  C129     1.0000 0.40422  0.96310  0.05652  Biso   1.000  C
  C130     1.0000 0.09578  0.03690  0.55652  Biso   1.000  C
  C131     1.0000 0.90422  0.53690  0.94348  Biso   1.000  C
  C132     1.0000 0.59578  0.46310  0.44348  Biso   1.000  C
  C133     1.0000 0.59578  0.03690  0.94348  Biso   1.000  C
  C134     1.0000 0.90422  0.96310  0.44348  Biso   1.000  C
  C135     1.0000 0.09578  0.46310  0.05652  Biso   1.000  C
  C136     1.0000 0.40422  0.53690  0.55652  Biso   1.000  C
  C137     1.0000 0.42395  0.94792  0.08120  Biso   1.000  C
  C138     1.0000 0.07605  0.05208  0.58120  Biso   1.000  C
  C139     1.0000 0.92395  0.55208  0.91880  Biso   1.000  C
  C140     1.0000 0.57605  0.44792  0.41880  Biso   1.000  C
  C141     1.0000 0.57605  0.05208  0.91880  Biso   1.000  C
  C142     1.0000 0.92395  0.94792  0.41880  Biso   1.000  C
  C143     1.0000 0.07605  0.44792  0.08120  Biso   1.000  C
  C144     1.0000 0.42395  0.55208  0.58120  Biso   1.000  C
  N9       1.0000 0.44053  0.93639  0.10127  Biso   1.000  N
  N10      1.0000 0.05947  0.06361  0.60127  Biso   1.000  N
  N11      1.0000 0.94053  0.56361  0.89873  Biso   1.000  N
  N12      1.0000 0.55947  0.43639  0.39873  Biso   1.000  N
  N13      1.0000 0.55947  0.06361  0.89873  Biso   1.000  N
  N14      1.0000 0.94053  0.93639  0.39873  Biso   1.000  N
  N15      1.0000 0.05947  0.43639  0.10127  Biso   1.000  N
  N16      1.0000 0.44053  0.56361  0.60127  Biso   1.000  N
  C145     1.0000 0.34628  0.97968  0.05322  Biso   1.000  C
  C146     1.0000 0.15372  0.02032  0.55322  Biso   1.000  C
  C147     1.0000 0.84628  0.52032  0.94678  Biso   1.000  C
  C148     1.0000 0.65372  0.47968  0.44678  Biso   1.000  C
  C149     1.0000 0.65372  0.02032  0.94678  Biso   1.000  C
  C150     1.0000 0.84628  0.97968  0.44678  Biso   1.000  C
  C151     1.0000 0.15372  0.47968  0.05322  Biso   1.000  C
  C152     1.0000 0.34628  0.52032  0.55322  Biso   1.000  C
  H49      1.0000 0.32070  0.97940  0.06720  Biso   1.000  H
  H50      1.0000 0.17930  0.02060  0.56720  Biso   1.000  H
  H51      1.0000 0.82070  0.52060  0.93280  Biso   1.000  H
  H52      1.0000 0.67930  0.47940  0.43280  Biso   1.000  H
  H53      1.0000 0.67930  0.02060  0.93280  Biso   1.000  H
  H54      1.0000 0.82070  0.97940  0.43280  Biso   1.000  H
  H55      1.0000 0.17930  0.47940  0.06720  Biso   1.000  H
  H56      1.0000 0.32070  0.52060  0.56720  Biso   1.000  H
  C153     1.0000 0.32776  0.99623  0.02938  Biso   1.000  C
  C154     1.0000 0.17224  0.00377  0.52938  Biso   1.000  C
  C155     1.0000 0.82776  0.50377  0.97062  Biso   1.000  C
  C156     1.0000 0.67224  0.49623  0.47062  Biso   1.000  C
  C157     1.0000 0.67224  0.00377  0.97062  Biso   1.000  C
  C158     1.0000 0.82776  0.99623  0.47062  Biso   1.000  C
  C159     1.0000 0.17224  0.49623  0.02938  Biso   1.000  C
  C160     1.0000 0.32776  0.50377  0.52938  Biso   1.000  C
  H57      1.0000 0.28910  0.00760  0.02700  Biso   1.000  H
  H58      1.0000 0.21090  0.99240  0.52700  Biso   1.000  H
  H59      1.0000 0.78910  0.49240  0.97300  Biso   1.000  H
  H60      1.0000 0.71090  0.50760  0.47300  Biso   1.000  H
  H61      1.0000 0.71090  0.99240  0.97300  Biso   1.000  H
  H62      1.0000 0.78910  0.00760  0.47300  Biso   1.000  H
  H63      1.0000 0.21090  0.50760  0.02700  Biso   1.000  H
  H64      1.0000 0.28910  0.49240  0.52700  Biso   1.000  H
  C161     1.0000 0.25898  0.87016  0.01168  Biso   1.000  C
  C162     1.0000 0.24102  0.12984  0.51168  Biso   1.000  C
  C163     1.0000 0.75898  0.62984  0.98832  Biso   1.000  C
  C164     1.0000 0.74102  0.37016  0.48832  Biso   1.000  C
  C165     1.0000 0.74102  0.12984  0.98832  Biso   1.000  C
  C166     1.0000 0.75898  0.87016  0.48832  Biso   1.000  C
  C167     1.0000 0.24102  0.37016  0.01168  Biso   1.000  C
  C168     1.0000 0.25898  0.62984  0.51168  Biso   1.000  C
  C169     1.0000 0.31803  0.85992  0.00778  Biso   1.000  C
  C170     1.0000 0.18197  0.14008  0.50778  Biso   1.000  C
  C171     1.0000 0.81803  0.64008  0.99222  Biso   1.000  C
  C172     1.0000 0.68197  0.35992  0.49222  Biso   1.000  C
  C173     1.0000 0.68197  0.14008  0.99222  Biso   1.000  C
  C174     1.0000 0.81803  0.85992  0.49222  Biso   1.000  C
  C175     1.0000 0.18197  0.35992  0.00778  Biso   1.000  C
  C176     1.0000 0.31803  0.64008  0.50778  Biso   1.000  C
  H65      1.0000 0.33590  0.87400  0.99270  Biso   1.000  H
  H66      1.0000 0.16410  0.12600  0.49270  Biso   1.000  H
  H67      1.0000 0.83590  0.62600  0.00730  Biso   1.000  H
  H68      1.0000 0.66410  0.37400  0.50730  Biso   1.000  H
  H69      1.0000 0.66410  0.12600  0.00730  Biso   1.000  H
  H70      1.0000 0.83590  0.87400  0.50730  Biso   1.000  H
  H71      1.0000 0.16410  0.37400  0.99270  Biso   1.000  H
  H72      1.0000 0.33590  0.62600  0.49270  Biso   1.000  H
  C177     1.0000 0.34987  0.82920  0.02602  Biso   1.000  C
  C178     1.0000 0.15013  0.17080  0.52602  Biso   1.000  C
  C179     1.0000 0.84987  0.67080  0.97398  Biso   1.000  C
  C180     1.0000 0.65013  0.32920  0.47398  Biso   1.000  C
  C181     1.0000 0.65013  0.17080  0.97398  Biso   1.000  C
  C182     1.0000 0.84987  0.82920  0.47398  Biso   1.000  C
  C183     1.0000 0.15013  0.32920  0.02602  Biso   1.000  C
  C184     1.0000 0.34987  0.67080  0.52602  Biso   1.000  C
  H73      1.0000 0.38930  0.82190  0.02340  Biso   1.000  H
  H74      1.0000 0.11070  0.17810  0.52340  Biso   1.000  H
  H75      1.0000 0.88930  0.67810  0.97660  Biso   1.000  H
  H76      1.0000 0.61070  0.32190  0.47660  Biso   1.000  H
  H77      1.0000 0.61070  0.17810  0.97660  Biso   1.000  H
  H78      1.0000 0.88930  0.82190  0.47660  Biso   1.000  H
  H79      1.0000 0.11070  0.32190  0.02340  Biso   1.000  H
  H80      1.0000 0.38930  0.67810  0.52340  Biso   1.000  H
  C185     1.0000 0.32331  0.80924  0.04811  Biso   1.000  C
  C186     1.0000 0.17669  0.19076  0.54811  Biso   1.000  C
  C187     1.0000 0.82331  0.69076  0.95189  Biso   1.000  C
  C188     1.0000 0.67669  0.30924  0.45189  Biso   1.000  C
  C189     1.0000 0.67669  0.19076  0.95189  Biso   1.000  C
  C190     1.0000 0.82331  0.80924  0.45189  Biso   1.000  C
  C191     1.0000 0.17669  0.30924  0.04811  Biso   1.000  C
  C192     1.0000 0.32331  0.69076  0.54811  Biso   1.000  C
  C193     1.0000 0.35675  0.77639  0.06699  Biso   1.000  C
  C194     1.0000 0.14325  0.22361  0.56699  Biso   1.000  C
  C195     1.0000 0.85675  0.72361  0.93301  Biso   1.000  C
  C196     1.0000 0.64325  0.27639  0.43301  Biso   1.000  C
  C197     1.0000 0.64325  0.22361  0.93301  Biso   1.000  C
  C198     1.0000 0.85675  0.77639  0.43301  Biso   1.000  C
  C199     1.0000 0.14325  0.27639  0.06699  Biso   1.000  C
  C200     1.0000 0.35675  0.72361  0.56699  Biso   1.000  C
  N17      1.0000 0.38328  0.75218  0.08169  Biso   1.000  N
  N18      1.0000 0.11672  0.24782  0.58169  Biso   1.000  N
  N19      1.0000 0.88328  0.74782  0.91831  Biso   1.000  N
  N20      1.0000 0.61672  0.25218  0.41831  Biso   1.000  N
  N21      1.0000 0.61672  0.24782  0.91831  Biso   1.000  N
  N22      1.0000 0.88328  0.75218  0.41831  Biso   1.000  N
  N23      1.0000 0.11672  0.25218  0.08169  Biso   1.000  N
  N24      1.0000 0.38328  0.74782  0.58169  Biso   1.000  N
  C201     1.0000 0.26491  0.81720  0.05163  Biso   1.000  C
  C202     1.0000 0.23509  0.18280  0.55163  Biso   1.000  C
  C203     1.0000 0.76491  0.68280  0.94837  Biso   1.000  C
  C204     1.0000 0.73509  0.31720  0.44837  Biso   1.000  C
  C205     1.0000 0.73509  0.18280  0.94837  Biso   1.000  C
  C206     1.0000 0.76491  0.81720  0.44837  Biso   1.000  C
  C207     1.0000 0.23509  0.31720  0.05163  Biso   1.000  C
  C208     1.0000 0.26491  0.68280  0.55163  Biso   1.000  C
  H81      1.0000 0.24670  0.80100  0.06620  Biso   1.000  H
  H82      1.0000 0.25330  0.19900  0.56620  Biso   1.000  H
  H83      1.0000 0.74670  0.69900  0.93380  Biso   1.000  H
  H84      1.0000 0.75330  0.30100  0.43380  Biso   1.000  H
  H85      1.0000 0.75330  0.19900  0.93380  Biso   1.000  H
  H86      1.0000 0.74670  0.80100  0.43380  Biso   1.000  H
  H87      1.0000 0.25330  0.30100  0.06620  Biso   1.000  H
  H88      1.0000 0.24670  0.69900  0.56620  Biso   1.000  H
  C209     1.0000 0.23425  0.84837  0.03402  Biso   1.000  C
  C210     1.0000 0.26575  0.15163  0.53402  Biso   1.000  C
  C211     1.0000 0.73425  0.65163  0.96598  Biso   1.000  C
  C212     1.0000 0.76575  0.34837  0.46598  Biso   1.000  C
  C213     1.0000 0.76575  0.15163  0.96598  Biso   1.000  C
  C214     1.0000 0.73425  0.84837  0.46598  Biso   1.000  C
  C215     1.0000 0.26575  0.34837  0.03402  Biso   1.000  C
  C216     1.0000 0.23425  0.65163  0.53402  Biso   1.000  C
  H89      1.0000 0.19490  0.85550  0.03700  Biso   1.000  H
  H90      1.0000 0.30510  0.14450  0.53700  Biso   1.000  H
  H91      1.0000 0.69490  0.64450  0.96300  Biso   1.000  H
  H92      1.0000 0.80510  0.35550  0.46300  Biso   1.000  H
  H93      1.0000 0.80510  0.14450  0.96300  Biso   1.000  H
  H94      1.0000 0.69490  0.85550  0.46300  Biso   1.000  H
  H95      1.0000 0.30510  0.35550  0.03700  Biso   1.000  H
  H96      1.0000 0.19490  0.64450  0.53700  Biso   1.000  H
  C217     1.0000 0.16725  0.88173  0.98705  Biso   1.000  C
  C218     1.0000 0.33275  0.11827  0.48705  Biso   1.000  C
  C219     1.0000 0.66725  0.61827  0.01295  Biso   1.000  C
  C220     1.0000 0.83275  0.38173  0.51295  Biso   1.000  C
  C221     1.0000 0.83275  0.11827  0.01295  Biso   1.000  C
  C222     1.0000 0.66725  0.88173  0.51295  Biso   1.000  C
  C223     1.0000 0.33275  0.38173  0.98705  Biso   1.000  C
  C224     1.0000 0.16725  0.61827  0.48705  Biso   1.000  C
  C225     1.0000 0.15420  0.81926  0.98624  Biso   1.000  C
  C226     1.0000 0.34580  0.18074  0.48624  Biso   1.000  C
  C227     1.0000 0.65420  0.68074  0.01376  Biso   1.000  C
  C228     1.0000 0.84580  0.31926  0.51376  Biso   1.000  C
  C229     1.0000 0.84580  0.18074  0.01376  Biso   1.000  C
  C230     1.0000 0.65420  0.81926  0.51376  Biso   1.000  C
  C231     1.0000 0.34580  0.31926  0.98624  Biso   1.000  C
  C232     1.0000 0.15420  0.68074  0.48624  Biso   1.000  C
  H97      1.0000 0.18340  0.79030  0.98920  Biso   1.000  H
  H98      1.0000 0.31660  0.20970  0.48920  Biso   1.000  H
  H99      1.0000 0.68340  0.70970  0.01080  Biso   1.000  H
  H100     1.0000 0.81660  0.29030  0.51080  Biso   1.000  H
  H101     1.0000 0.81660  0.20970  0.01080  Biso   1.000  H
  H102     1.0000 0.68340  0.79030  0.51080  Biso   1.000  H
  H103     1.0000 0.31660  0.29030  0.98920  Biso   1.000  H
  H104     1.0000 0.18340  0.70970  0.48920  Biso   1.000  H
  C233     1.0000 0.09890  0.79966  0.98120  Biso   1.000  C
  C234     1.0000 0.40110  0.20034  0.48120  Biso   1.000  C
  C235     1.0000 0.59890  0.70034  0.01880  Biso   1.000  C
  C236     1.0000 0.90110  0.29966  0.51880  Biso   1.000  C
  C237     1.0000 0.90110  0.20034  0.01880  Biso   1.000  C
  C238     1.0000 0.59890  0.79966  0.51880  Biso   1.000  C
  C239     1.0000 0.40110  0.29966  0.98120  Biso   1.000  C
  C240     1.0000 0.09890  0.70034  0.48120  Biso   1.000  C
  H105     1.0000 0.09060  0.75750  0.98040  Biso   1.000  H
  H106     1.0000 0.40940  0.24250  0.48040  Biso   1.000  H
  H107     1.0000 0.59060  0.74250  0.01960  Biso   1.000  H
  H108     1.0000 0.90940  0.25750  0.51960  Biso   1.000  H
  H109     1.0000 0.90940  0.24250  0.01960  Biso   1.000  H
  H110     1.0000 0.59060  0.75750  0.51960  Biso   1.000  H
  H111     1.0000 0.40940  0.25750  0.98040  Biso   1.000  H
  H112     1.0000 0.09060  0.74250  0.48040  Biso   1.000  H
  C241     1.0000 0.05560  0.84250  0.97736  Biso   1.000  C
  C242     1.0000 0.44440  0.15750  0.47736  Biso   1.000  C
  C243     1.0000 0.55560  0.65750  0.02264  Biso   1.000  C
  C244     1.0000 0.94440  0.34250  0.52264  Biso   1.000  C
  C245     1.0000 0.94440  0.15750  0.02264  Biso   1.000  C
  C246     1.0000 0.55560  0.84250  0.52264  Biso   1.000  C
  C247     1.0000 0.44440  0.34250  0.97736  Biso   1.000  C
  C248     1.0000 0.05560  0.65750  0.47736  Biso   1.000  C
  C249     1.0000 0.99864  0.81980  0.97325  Biso   1.000  C
  C250     1.0000 0.50136  0.18020  0.47325  Biso   1.000  C
  C251     1.0000 0.49864  0.68020  0.02675  Biso   1.000  C
  C252     1.0000 0.00136  0.31980  0.52675  Biso   1.000  C
  C253     1.0000 0.00136  0.18020  0.02675  Biso   1.000  C
  C254     1.0000 0.49864  0.81980  0.52675  Biso   1.000  C
  C255     1.0000 0.50136  0.31980  0.97325  Biso   1.000  C
  C256     1.0000 0.99864  0.68020  0.47325  Biso   1.000  C
  N25      1.0000 0.95335  0.80300  0.96951  Biso   1.000  N
  N26      1.0000 0.54665  0.19700  0.46951  Biso   1.000  N
  N27      1.0000 0.45335  0.69700  0.03049  Biso   1.000  N
  N28      1.0000 0.04665  0.30300  0.53049  Biso   1.000  N
  N29      1.0000 0.04665  0.19700  0.03049  Biso   1.000  N
  N30      1.0000 0.45335  0.80300  0.53049  Biso   1.000  N
  N31      1.0000 0.54665  0.30300  0.96951  Biso   1.000  N
  N32      1.0000 0.95335  0.69700  0.46951  Biso   1.000  N
  C257     1.0000 0.06825  0.90354  0.97869  Biso   1.000  C
  C258     1.0000 0.43175  0.09646  0.47869  Biso   1.000  C
  C259     1.0000 0.56825  0.59646  0.02131  Biso   1.000  C
  C260     1.0000 0.93175  0.40354  0.52131  Biso   1.000  C
  C261     1.0000 0.93175  0.09646  0.02131  Biso   1.000  C
  C262     1.0000 0.56825  0.90354  0.52131  Biso   1.000  C
  C263     1.0000 0.43175  0.40354  0.97869  Biso   1.000  C
  C264     1.0000 0.06825  0.59646  0.47869  Biso   1.000  C
  H113     1.0000 0.03870  0.93230  0.97620  Biso   1.000  H
  H114     1.0000 0.46130  0.06770  0.47620  Biso   1.000  H
  H115     1.0000 0.53870  0.56770  0.02380  Biso   1.000  H
  H116     1.0000 0.96130  0.43230  0.52380  Biso   1.000  H
  H117     1.0000 0.96130  0.06770  0.02380  Biso   1.000  H
  H118     1.0000 0.53870  0.93230  0.52380  Biso   1.000  H
  H119     1.0000 0.46130  0.43230  0.97620  Biso   1.000  H
  H120     1.0000 0.03870  0.56770  0.47620  Biso   1.000  H
  C265     1.0000 0.12249  0.92360  0.98349  Biso   1.000  C
  C266     1.0000 0.37751  0.07640  0.48349  Biso   1.000  C
  C267     1.0000 0.62249  0.57640  0.01651  Biso   1.000  C
  C268     1.0000 0.87751  0.42360  0.51651  Biso   1.000  C
  C269     1.0000 0.87751  0.07640  0.01651  Biso   1.000  C
  C270     1.0000 0.62249  0.92360  0.51651  Biso   1.000  C
  C271     1.0000 0.37751  0.42360  0.98349  Biso   1.000  C
  C272     1.0000 0.12249  0.57640  0.48349  Biso   1.000  C
  H121     1.0000 0.13000  0.96590  0.98440  Biso   1.000  H
  H122     1.0000 0.37000  0.03410  0.48440  Biso   1.000  H
  H123     1.0000 0.63000  0.53410  0.01560  Biso   1.000  H
  H124     1.0000 0.87000  0.46590  0.51560  Biso   1.000  H
  H125     1.0000 0.87000  0.03410  0.01560  Biso   1.000  H
  H126     1.0000 0.63000  0.96590  0.51560  Biso   1.000  H
  H127     1.0000 0.37000  0.46590  0.98440  Biso   1.000  H
  H128     1.0000 0.13000  0.53410  0.48440  Biso   1.000  H
  C273     1.0000 0.16367  0.98655  0.92964  Biso   1.000  C
  C274     1.0000 0.33633  0.01345  0.42964  Biso   1.000  C
  C275     1.0000 0.66367  0.51345  0.07036  Biso   1.000  C
  C276     1.0000 0.83633  0.48655  0.57036  Biso   1.000  C
  C277     1.0000 0.83633  0.01345  0.07036  Biso   1.000  C
  C278     1.0000 0.66367  0.98655  0.57036  Biso   1.000  C
  C279     1.0000 0.33633  0.48655  0.92964  Biso   1.000  C
  C280     1.0000 0.16367  0.51345  0.42964  Biso   1.000  C
  C281     1.0000 0.16493  0.92443  0.92650  Biso   1.000  C
  C282     1.0000 0.33507  0.07557  0.42650  Biso   1.000  C
  C283     1.0000 0.66493  0.57557  0.07350  Biso   1.000  C
  C284     1.0000 0.83507  0.42443  0.57350  Biso   1.000  C
  C285     1.0000 0.83507  0.07557  0.07350  Biso   1.000  C
  C286     1.0000 0.66493  0.92443  0.57350  Biso   1.000  C
  C287     1.0000 0.33507  0.42443  0.92650  Biso   1.000  C
  C288     1.0000 0.16493  0.57557  0.42650  Biso   1.000  C
  H129     1.0000 0.19940  0.90310  0.92960  Biso   1.000  H
  H130     1.0000 0.30060  0.09690  0.42960  Biso   1.000  H
  H131     1.0000 0.69940  0.59690  0.07040  Biso   1.000  H
  H132     1.0000 0.80060  0.40310  0.57040  Biso   1.000  H
  H133     1.0000 0.80060  0.09690  0.07040  Biso   1.000  H
  H134     1.0000 0.69940  0.90310  0.57040  Biso   1.000  H
  H135     1.0000 0.30060  0.40310  0.92960  Biso   1.000  H
  H136     1.0000 0.19940  0.59690  0.42960  Biso   1.000  H
  C289     1.0000 0.11700  0.89251  0.91893  Biso   1.000  C
  C290     1.0000 0.38300  0.10749  0.41893  Biso   1.000  C
  C291     1.0000 0.61700  0.60749  0.08107  Biso   1.000  C
  C292     1.0000 0.88300  0.39251  0.58107  Biso   1.000  C
  C293     1.0000 0.88300  0.10749  0.08107  Biso   1.000  C
  C294     1.0000 0.61700  0.89251  0.58107  Biso   1.000  C
  C295     1.0000 0.38300  0.39251  0.91893  Biso   1.000  C
  C296     1.0000 0.11700  0.60749  0.41893  Biso   1.000  C
  H137     1.0000 0.11840  0.84970  0.91700  Biso   1.000  H
  H138     1.0000 0.38160  0.15030  0.41700  Biso   1.000  H
  H139     1.0000 0.61840  0.65030  0.08300  Biso   1.000  H
  H140     1.0000 0.88160  0.34970  0.58300  Biso   1.000  H
  H141     1.0000 0.88160  0.15030  0.08300  Biso   1.000  H
  H142     1.0000 0.61840  0.84970  0.58300  Biso   1.000  H
  H143     1.0000 0.38160  0.34970  0.91700  Biso   1.000  H
  H144     1.0000 0.11840  0.65030  0.41700  Biso   1.000  H
  C297     1.0000 0.06617  0.92452  0.91409  Biso   1.000  C
  C298     1.0000 0.43383  0.07548  0.41409  Biso   1.000  C
  C299     1.0000 0.56617  0.57548  0.08591  Biso   1.000  C
  C300     1.0000 0.93383  0.42452  0.58591  Biso   1.000  C
  C301     1.0000 0.93383  0.07548  0.08591  Biso   1.000  C
  C302     1.0000 0.56617  0.92452  0.58591  Biso   1.000  C
  C303     1.0000 0.43383  0.42452  0.91409  Biso   1.000  C
  C304     1.0000 0.06617  0.57548  0.41409  Biso   1.000  C
  C305     1.0000 0.01690  0.88997  0.90826  Biso   1.000  C
  C306     1.0000 0.48310  0.11003  0.40826  Biso   1.000  C
  C307     1.0000 0.51690  0.61003  0.09174  Biso   1.000  C
  C308     1.0000 0.98310  0.38997  0.59174  Biso   1.000  C
  C309     1.0000 0.98310  0.11003  0.09174  Biso   1.000  C
  C310     1.0000 0.51690  0.88997  0.59174  Biso   1.000  C
  C311     1.0000 0.48310  0.38997  0.90826  Biso   1.000  C
  C312     1.0000 0.01690  0.61003  0.40826  Biso   1.000  C
  N33      1.0000 0.97990  0.85650  0.90423  Biso   1.000  N
  N34      1.0000 0.52010  0.14350  0.40423  Biso   1.000  N
  N35      1.0000 0.47990  0.64350  0.09577  Biso   1.000  N
  N36      1.0000 0.02010  0.35650  0.59577  Biso   1.000  N
  N37      1.0000 0.02010  0.14350  0.09577  Biso   1.000  N
  N38      1.0000 0.47990  0.85650  0.59577  Biso   1.000  N
  N39      1.0000 0.52010  0.35650  0.90423  Biso   1.000  N
  N40      1.0000 0.97990  0.64350  0.40423  Biso   1.000  N
  C313     1.0000 0.06473  0.98804  0.91662  Biso   1.000  C
  C314     1.0000 0.43527  0.01196  0.41662  Biso   1.000  C
  C315     1.0000 0.56473  0.51196  0.08338  Biso   1.000  C
  C316     1.0000 0.93527  0.48804  0.58338  Biso   1.000  C
  C317     1.0000 0.93527  0.01196  0.08338  Biso   1.000  C
  C318     1.0000 0.56473  0.98804  0.58338  Biso   1.000  C
  C319     1.0000 0.43527  0.48804  0.91662  Biso   1.000  C
  C320     1.0000 0.06473  0.51196  0.41662  Biso   1.000  C
  H145     1.0000 0.03050  0.00960  0.91330  Biso   1.000  H
  H146     1.0000 0.46950  0.99040  0.41330  Biso   1.000  H
  H147     1.0000 0.53050  0.49040  0.08670  Biso   1.000  H
  H148     1.0000 0.96950  0.50960  0.58670  Biso   1.000  H
  H149     1.0000 0.96950  0.99040  0.08670  Biso   1.000  H
  H150     1.0000 0.53050  0.00960  0.58670  Biso   1.000  H
  H151     1.0000 0.46950  0.50960  0.91330  Biso   1.000  H
  H152     1.0000 0.03050  0.49040  0.41330  Biso   1.000  H
  C321     1.0000 0.11352  0.01917  0.92394  Biso   1.000  C
  C322     1.0000 0.38648  0.98083  0.42394  Biso   1.000  C
  C323     1.0000 0.61352  0.48083  0.07606  Biso   1.000  C
  C324     1.0000 0.88648  0.51917  0.57606  Biso   1.000  C
  C325     1.0000 0.88648  0.98083  0.07606  Biso   1.000  C
  C326     1.0000 0.61352  0.01917  0.57606  Biso   1.000  C
  C327     1.0000 0.38648  0.51917  0.92394  Biso   1.000  C
  C328     1.0000 0.11352  0.48083  0.42394  Biso   1.000  C
  H153     1.0000 0.11310  0.06220  0.92510  Biso   1.000  H
  H154     1.0000 0.38690  0.93780  0.42510  Biso   1.000  H
  H155     1.0000 0.61310  0.43780  0.07490  Biso   1.000  H
  H156     1.0000 0.88690  0.56220  0.57490  Biso   1.000  H
  H157     1.0000 0.88690  0.93780  0.07490  Biso   1.000  H
  H158     1.0000 0.61310  0.06220  0.57490  Biso   1.000  H
  H159     1.0000 0.38690  0.56220  0.92510  Biso   1.000  H
  H160     1.0000 0.11310  0.43780  0.42510  Biso   1.000  H
  C329     1.0000 0.23280  0.07678  0.92944  Biso   1.000  C
  C330     1.0000 0.26720  0.92322  0.42944  Biso   1.000  C
  C331     1.0000 0.73280  0.42322  0.07056  Biso   1.000  C
  C332     1.0000 0.76720  0.57678  0.57056  Biso   1.000  C
  C333     1.0000 0.76720  0.92322  0.07056  Biso   1.000  C
  C334     1.0000 0.73280  0.07678  0.57056  Biso   1.000  C
  C335     1.0000 0.26720  0.57678  0.92944  Biso   1.000  C
  C336     1.0000 0.23280  0.42322  0.42944  Biso   1.000  C
  C337     1.0000 0.23088  0.08954  0.90308  Biso   1.000  C
  C338     1.0000 0.26912  0.91046  0.40308  Biso   1.000  C
  C339     1.0000 0.73088  0.41046  0.09692  Biso   1.000  C
  C340     1.0000 0.76912  0.58954  0.59692  Biso   1.000  C
  C341     1.0000 0.76912  0.91046  0.09692  Biso   1.000  C
  C342     1.0000 0.73088  0.08954  0.59692  Biso   1.000  C
  C343     1.0000 0.26912  0.58954  0.90308  Biso   1.000  C
  C344     1.0000 0.23088  0.41046  0.40308  Biso   1.000  C
  H161     1.0000 0.21590  0.06020  0.89170  Biso   1.000  H
  H162     1.0000 0.28410  0.93980  0.39170  Biso   1.000  H
  H163     1.0000 0.71590  0.43980  0.10830  Biso   1.000  H
  H164     1.0000 0.78410  0.56020  0.60830  Biso   1.000  H
  H165     1.0000 0.78410  0.93980  0.10830  Biso   1.000  H
  H166     1.0000 0.71590  0.06020  0.60830  Biso   1.000  H
  H167     1.0000 0.28410  0.56020  0.89170  Biso   1.000  H
  H168     1.0000 0.21590  0.43980  0.39170  Biso   1.000  H
  C345     1.0000 0.25039  0.14387  0.89392  Biso   1.000  C
  C346     1.0000 0.24961  0.85613  0.39392  Biso   1.000  C
  C347     1.0000 0.75039  0.35613  0.10608  Biso   1.000  C
  C348     1.0000 0.74961  0.64387  0.60608  Biso   1.000  C
  C349     1.0000 0.74961  0.85613  0.10608  Biso   1.000  C
  C350     1.0000 0.75039  0.14387  0.60608  Biso   1.000  C
  C351     1.0000 0.24961  0.64387  0.89392  Biso   1.000  C
  C352     1.0000 0.25039  0.35613  0.39392  Biso   1.000  C
  H169     1.0000 0.24980  0.15160  0.87620  Biso   1.000  H
  H170     1.0000 0.25020  0.84840  0.37620  Biso   1.000  H
  H171     1.0000 0.74980  0.34840  0.12380  Biso   1.000  H
  H172     1.0000 0.75020  0.65160  0.62380  Biso   1.000  H
  H173     1.0000 0.75020  0.84840  0.12380  Biso   1.000  H
  H174     1.0000 0.74980  0.15160  0.62380  Biso   1.000  H
  H175     1.0000 0.25020  0.65160  0.87620  Biso   1.000  H
  H176     1.0000 0.24980  0.34840  0.37620  Biso   1.000  H
  C353     1.0000 0.27115  0.18774  0.91055  Biso   1.000  C
  C354     1.0000 0.22885  0.81226  0.41055  Biso   1.000  C
  C355     1.0000 0.77115  0.31226  0.08945  Biso   1.000  C
  C356     1.0000 0.72885  0.68774  0.58945  Biso   1.000  C
  C357     1.0000 0.72885  0.81226  0.08945  Biso   1.000  C
  C358     1.0000 0.77115  0.18774  0.58945  Biso   1.000  C
  C359     1.0000 0.22885  0.68774  0.91055  Biso   1.000  C
  C360     1.0000 0.27115  0.31226  0.41055  Biso   1.000  C
  C361     1.0000 0.29061  0.24462  0.90109  Biso   1.000  C
  C362     1.0000 0.20939  0.75538  0.40109  Biso   1.000  C
  C363     1.0000 0.79061  0.25538  0.09891  Biso   1.000  C
  C364     1.0000 0.70939  0.74462  0.59891  Biso   1.000  C
  C365     1.0000 0.70939  0.75538  0.09891  Biso   1.000  C
  C366     1.0000 0.79061  0.24462  0.59891  Biso   1.000  C
  C367     1.0000 0.20939  0.74462  0.90109  Biso   1.000  C
  C368     1.0000 0.29061  0.25538  0.40109  Biso   1.000  C
  N41      1.0000 0.30602  0.29120  0.89356  Biso   1.000  N
  N42      1.0000 0.19398  0.70880  0.39356  Biso   1.000  N
  N43      1.0000 0.80602  0.20880  0.10644  Biso   1.000  N
  N44      1.0000 0.69398  0.79120  0.60644  Biso   1.000  N
  N45      1.0000 0.69398  0.70880  0.10644  Biso   1.000  N
  N46      1.0000 0.80602  0.29120  0.60644  Biso   1.000  N
  N47      1.0000 0.19398  0.79120  0.89356  Biso   1.000  N
  N48      1.0000 0.30602  0.20880  0.39356  Biso   1.000  N
  C369     1.0000 0.27221  0.17683  0.93666  Biso   1.000  C
  C370     1.0000 0.22779  0.82317  0.43666  Biso   1.000  C
  C371     1.0000 0.77221  0.32317  0.06334  Biso   1.000  C
  C372     1.0000 0.72779  0.67683  0.56334  Biso   1.000  C
  C373     1.0000 0.72779  0.82317  0.06334  Biso   1.000  C
  C374     1.0000 0.77221  0.17683  0.56334  Biso   1.000  C
  C375     1.0000 0.22779  0.67683  0.93666  Biso   1.000  C
  C376     1.0000 0.27221  0.32317  0.43666  Biso   1.000  C
  H177     1.0000 0.28580  0.20710  0.94800  Biso   1.000  H
  H178     1.0000 0.21420  0.79290  0.44800  Biso   1.000  H
  H179     1.0000 0.78580  0.29290  0.05200  Biso   1.000  H
  H180     1.0000 0.71420  0.70710  0.55200  Biso   1.000  H
  H181     1.0000 0.71420  0.79290  0.05200  Biso   1.000  H
  H182     1.0000 0.78580  0.20710  0.55200  Biso   1.000  H
  H183     1.0000 0.21420  0.70710  0.94800  Biso   1.000  H
  H184     1.0000 0.28580  0.29290  0.44800  Biso   1.000  H
  C377     1.0000 0.25336  0.12170  0.94587  Biso   1.000  C
  C378     1.0000 0.24664  0.87830  0.44587  Biso   1.000  C
  C379     1.0000 0.75336  0.37830  0.05413  Biso   1.000  C
  C380     1.0000 0.74664  0.62170  0.55413  Biso   1.000  C
  C381     1.0000 0.74664  0.87830  0.05413  Biso   1.000  C
  C382     1.0000 0.75336  0.12170  0.55413  Biso   1.000  C
  C383     1.0000 0.24664  0.62170  0.94587  Biso   1.000  C
  C384     1.0000 0.25336  0.37830  0.44587  Biso   1.000  C
  H185     1.0000 0.25430  0.11410  0.96360  Biso   1.000  H
  H186     1.0000 0.24570  0.88590  0.46360  Biso   1.000  H
  H187     1.0000 0.75430  0.38590  0.03640  Biso   1.000  H
  H188     1.0000 0.74570  0.61410  0.53640  Biso   1.000  H
  H189     1.0000 0.74570  0.88590  0.03640  Biso   1.000  H
  H190     1.0000 0.75430  0.11410  0.53640  Biso   1.000  H
  H191     1.0000 0.24570  0.61410  0.96360  Biso   1.000  H
  H192     1.0000 0.25430  0.38590  0.46360  Biso   1.000  H
  C385     1.0000 0.69690  0.19829  0.22908  Biso   1.000  C
  C386     1.0000 0.80310  0.80171  0.72908  Biso   1.000  C
  C387     1.0000 0.19690  0.30171  0.77092  Biso   1.000  C
  C388     1.0000 0.30310  0.69829  0.27092  Biso   1.000  C
  C389     1.0000 0.30310  0.80171  0.77092  Biso   1.000  C
  C390     1.0000 0.19690  0.19829  0.27092  Biso   1.000  C
  C391     1.0000 0.80310  0.69829  0.22908  Biso   1.000  C
  C392     1.0000 0.69690  0.30171  0.72908  Biso   1.000  C
  C393     1.0000 0.74135  0.20172  0.21057  Biso   1.000  C
  C394     1.0000 0.75865  0.79828  0.71057  Biso   1.000  C
  C395     1.0000 0.24135  0.29828  0.78943  Biso   1.000  C
  C396     1.0000 0.25865  0.70172  0.28943  Biso   1.000  C
  C397     1.0000 0.25865  0.79828  0.78943  Biso   1.000  C
  C398     1.0000 0.24135  0.20172  0.28943  Biso   1.000  C
  C399     1.0000 0.75865  0.70172  0.21057  Biso   1.000  C
  C400     1.0000 0.74135  0.29828  0.71057  Biso   1.000  C
  C401     1.0000 0.74226  0.24051  0.23245  Biso   1.000  C
  C402     1.0000 0.75774  0.75949  0.73245  Biso   1.000  C
  C403     1.0000 0.24226  0.25949  0.76755  Biso   1.000  C
  C404     1.0000 0.25774  0.74051  0.26755  Biso   1.000  C
  C405     1.0000 0.25774  0.75949  0.76755  Biso   1.000  C
  C406     1.0000 0.24226  0.24051  0.26755  Biso   1.000  C
  C407     1.0000 0.75774  0.74051  0.23245  Biso   1.000  C
  C408     1.0000 0.74226  0.25949  0.73245  Biso   1.000  C
  C409     1.0000 0.64615  0.17359  0.23708  Biso   1.000  C
  C410     1.0000 0.85385  0.82641  0.73708  Biso   1.000  C
  C411     1.0000 0.14615  0.32641  0.76292  Biso   1.000  C
  C412     1.0000 0.35385  0.67359  0.26292  Biso   1.000  C
  C413     1.0000 0.35385  0.82641  0.76292  Biso   1.000  C
  C414     1.0000 0.14615  0.17359  0.26292  Biso   1.000  C
  C415     1.0000 0.85385  0.67359  0.23708  Biso   1.000  C
  C416     1.0000 0.64615  0.32641  0.73708  Biso   1.000  C
  C417     1.0000 0.76541  0.18213  0.18881  Biso   1.000  C
  C418     1.0000 0.73459  0.81787  0.68881  Biso   1.000  C
  C419     1.0000 0.26541  0.31787  0.81119  Biso   1.000  C
  C420     1.0000 0.23459  0.68213  0.31119  Biso   1.000  C
  C421     1.0000 0.23459  0.81787  0.81119  Biso   1.000  C
  C422     1.0000 0.26541  0.18213  0.31119  Biso   1.000  C
  C423     1.0000 0.73459  0.68213  0.18881  Biso   1.000  C
  C424     1.0000 0.76541  0.31787  0.68881  Biso   1.000  C
  C425     1.0000 0.76461  0.28726  0.24565  Biso   1.000  C
  C426     1.0000 0.73539  0.71274  0.74565  Biso   1.000  C
  C427     1.0000 0.26461  0.21274  0.75435  Biso   1.000  C
  C428     1.0000 0.23539  0.78726  0.25435  Biso   1.000  C
  C429     1.0000 0.23539  0.71274  0.75435  Biso   1.000  C
  C430     1.0000 0.26461  0.28726  0.25435  Biso   1.000  C
  C431     1.0000 0.73539  0.78726  0.24565  Biso   1.000  C
  C432     1.0000 0.76461  0.21274  0.74565  Biso   1.000  C
  C433     1.0000 0.62805  0.18304  0.26336  Biso   1.000  C
  C434     1.0000 0.87195  0.81696  0.76336  Biso   1.000  C
  C435     1.0000 0.12805  0.31696  0.73664  Biso   1.000  C
  C436     1.0000 0.37195  0.68304  0.23664  Biso   1.000  C
  C437     1.0000 0.37195  0.81696  0.73664  Biso   1.000  C
  C438     1.0000 0.12805  0.18304  0.23664  Biso   1.000  C
  C439     1.0000 0.87195  0.68304  0.26336  Biso   1.000  C
  C440     1.0000 0.62805  0.31696  0.76336  Biso   1.000  C
  C441     1.0000 0.66903  0.18767  0.28264  Biso   1.000  C
  C442     1.0000 0.83097  0.81233  0.78264  Biso   1.000  C
  C443     1.0000 0.16903  0.31233  0.71736  Biso   1.000  C
  C444     1.0000 0.33097  0.68767  0.21736  Biso   1.000  C
  C445     1.0000 0.33097  0.81233  0.71736  Biso   1.000  C
  C446     1.0000 0.16903  0.18767  0.21736  Biso   1.000  C
  C447     1.0000 0.83097  0.68767  0.28264  Biso   1.000  C
  C448     1.0000 0.66903  0.31233  0.78264  Biso   1.000  C
  H193     1.0000 0.70810  0.18280  0.27850  Biso   1.000  H
  H194     1.0000 0.79190  0.81720  0.77850  Biso   1.000  H
  H195     1.0000 0.20810  0.31720  0.72150  Biso   1.000  H
  H196     1.0000 0.29190  0.68280  0.22150  Biso   1.000  H
  H197     1.0000 0.29190  0.81720  0.72150  Biso   1.000  H
  H198     1.0000 0.20810  0.18280  0.22150  Biso   1.000  H
  H199     1.0000 0.79190  0.68280  0.27850  Biso   1.000  H
  H200     1.0000 0.70810  0.31720  0.77850  Biso   1.000  H
  C449     1.0000 0.65393  0.19924  0.30764  Biso   1.000  C
  C450     1.0000 0.84607  0.80076  0.80764  Biso   1.000  C
  C451     1.0000 0.15393  0.30076  0.69236  Biso   1.000  C
  C452     1.0000 0.34607  0.69924  0.19236  Biso   1.000  C
  C453     1.0000 0.34607  0.80076  0.69236  Biso   1.000  C
  C454     1.0000 0.15393  0.19924  0.19236  Biso   1.000  C
  C455     1.0000 0.84607  0.69924  0.30764  Biso   1.000  C
  C456     1.0000 0.65393  0.30076  0.80764  Biso   1.000  C
  H201     1.0000 0.68240  0.20280  0.32040  Biso   1.000  H
  H202     1.0000 0.81760  0.79720  0.82040  Biso   1.000  H
  H203     1.0000 0.18240  0.29720  0.67960  Biso   1.000  H
  H204     1.0000 0.31760  0.70280  0.17960  Biso   1.000  H
  H205     1.0000 0.31760  0.79720  0.67960  Biso   1.000  H
  H206     1.0000 0.18240  0.20280  0.17960  Biso   1.000  H
  H207     1.0000 0.81760  0.70280  0.32040  Biso   1.000  H
  H208     1.0000 0.68240  0.29720  0.82040  Biso   1.000  H
  C457     1.0000 0.59689  0.20554  0.31390  Biso   1.000  C
  C458     1.0000 0.90311  0.79446  0.81390  Biso   1.000  C
  C459     1.0000 0.09689  0.29446  0.68610  Biso   1.000  C
  C460     1.0000 0.40311  0.70554  0.18610  Biso   1.000  C
  C461     1.0000 0.40311  0.79446  0.68610  Biso   1.000  C
  C462     1.0000 0.09689  0.20554  0.18610  Biso   1.000  C
  C463     1.0000 0.90311  0.70554  0.31390  Biso   1.000  C
  C464     1.0000 0.59689  0.29446  0.81390  Biso   1.000  C
  C465     1.0000 0.57954  0.21739  0.33950  Biso   1.000  C
  C466     1.0000 0.92046  0.78261  0.83950  Biso   1.000  C
  C467     1.0000 0.07954  0.28261  0.66050  Biso   1.000  C
  C468     1.0000 0.42046  0.71739  0.16050  Biso   1.000  C
  C469     1.0000 0.42046  0.78261  0.66050  Biso   1.000  C
  C470     1.0000 0.07954  0.21739  0.16050  Biso   1.000  C
  C471     1.0000 0.92046  0.71739  0.33950  Biso   1.000  C
  C472     1.0000 0.57954  0.28261  0.83950  Biso   1.000  C
  N49      1.0000 0.56733  0.22588  0.36023  Biso   1.000  N
  N50      1.0000 0.93267  0.77412  0.86023  Biso   1.000  N
  N51      1.0000 0.06733  0.27412  0.63977  Biso   1.000  N
  N52      1.0000 0.43267  0.72588  0.13977  Biso   1.000  N
  N53      1.0000 0.43267  0.77412  0.63977  Biso   1.000  N
  N54      1.0000 0.06733  0.22588  0.13977  Biso   1.000  N
  N55      1.0000 0.93267  0.72588  0.36023  Biso   1.000  N
  N56      1.0000 0.56733  0.27412  0.86023  Biso   1.000  N
  C473     1.0000 0.55428  0.19889  0.29506  Biso   1.000  C
  C474     1.0000 0.94572  0.80111  0.79506  Biso   1.000  C
  C475     1.0000 0.05428  0.30111  0.70494  Biso   1.000  C
  C476     1.0000 0.44572  0.69889  0.20494  Biso   1.000  C
  C477     1.0000 0.44572  0.80111  0.70494  Biso   1.000  C
  C478     1.0000 0.05428  0.19889  0.20494  Biso   1.000  C
  C479     1.0000 0.94572  0.69889  0.29506  Biso   1.000  C
  C480     1.0000 0.55428  0.30111  0.79506  Biso   1.000  C
  H209     1.0000 0.51510  0.20180  0.29950  Biso   1.000  H
  H210     1.0000 0.98490  0.79820  0.79950  Biso   1.000  H
  H211     1.0000 0.01510  0.29820  0.70050  Biso   1.000  H
  H212     1.0000 0.48490  0.70180  0.20050  Biso   1.000  H
  H213     1.0000 0.48490  0.79820  0.70050  Biso   1.000  H
  H214     1.0000 0.01510  0.20180  0.20050  Biso   1.000  H
  H215     1.0000 0.98490  0.70180  0.29950  Biso   1.000  H
  H216     1.0000 0.51510  0.29820  0.79950  Biso   1.000  H
  C481     1.0000 0.57036  0.18803  0.27014  Biso   1.000  C
  C482     1.0000 0.92964  0.81197  0.77014  Biso   1.000  C
  C483     1.0000 0.07036  0.31197  0.72986  Biso   1.000  C
  C484     1.0000 0.42964  0.68803  0.22986  Biso   1.000  C
  C485     1.0000 0.42964  0.81197  0.72986  Biso   1.000  C
  C486     1.0000 0.07036  0.18803  0.22986  Biso   1.000  C
  C487     1.0000 0.92964  0.68803  0.27014  Biso   1.000  C
  C488     1.0000 0.57036  0.31197  0.77014  Biso   1.000  C
  H217     1.0000 0.54190  0.18390  0.25740  Biso   1.000  H
  H218     1.0000 0.95810  0.81610  0.75740  Biso   1.000  H
  H219     1.0000 0.04190  0.31610  0.74260  Biso   1.000  H
  H220     1.0000 0.45810  0.68390  0.24260  Biso   1.000  H
  H221     1.0000 0.45810  0.81610  0.74260  Biso   1.000  H
  H222     1.0000 0.04190  0.18390  0.24260  Biso   1.000  H
  H223     1.0000 0.95810  0.68390  0.25740  Biso   1.000  H
  H224     1.0000 0.54190  0.31610  0.75740  Biso   1.000  H
  C489     1.0000 0.61136  0.13897  0.21915  Biso   1.000  C
  C490     1.0000 0.88864  0.86103  0.71915  Biso   1.000  C
  C491     1.0000 0.11136  0.36103  0.78085  Biso   1.000  C
  C492     1.0000 0.38864  0.63897  0.28085  Biso   1.000  C
  C493     1.0000 0.38864  0.86103  0.78085  Biso   1.000  C
  C494     1.0000 0.11136  0.13897  0.28085  Biso   1.000  C
  C495     1.0000 0.88864  0.63897  0.21915  Biso   1.000  C
  C496     1.0000 0.61136  0.36103  0.71915  Biso   1.000  C
  C497     1.0000 0.58183  0.08675  0.22663  Biso   1.000  C
  C498     1.0000 0.91817  0.91325  0.72663  Biso   1.000  C
  C499     1.0000 0.08183  0.41325  0.77337  Biso   1.000  C
  C500     1.0000 0.41817  0.58675  0.27337  Biso   1.000  C
  C501     1.0000 0.41817  0.91325  0.77337  Biso   1.000  C
  C502     1.0000 0.08183  0.08675  0.27337  Biso   1.000  C
  C503     1.0000 0.91817  0.58675  0.22663  Biso   1.000  C
  C504     1.0000 0.58183  0.41325  0.72663  Biso   1.000  C
  H225     1.0000 0.58300  0.07430  0.24390  Biso   1.000  H
  H226     1.0000 0.91700  0.92570  0.74390  Biso   1.000  H
  H227     1.0000 0.08300  0.42570  0.75610  Biso   1.000  H
  H228     1.0000 0.41700  0.57430  0.25610  Biso   1.000  H
  H229     1.0000 0.41700  0.92570  0.75610  Biso   1.000  H
  H230     1.0000 0.08300  0.07430  0.25610  Biso   1.000  H
  H231     1.0000 0.91700  0.57430  0.24390  Biso   1.000  H
  H232     1.0000 0.58300  0.42570  0.74390  Biso   1.000  H
  C505     1.0000 0.55102  0.05316  0.20934  Biso   1.000  C
  C506     1.0000 0.94898  0.94684  0.70934  Biso   1.000  C
  C507     1.0000 0.05102  0.44684  0.79066  Biso   1.000  C
  C508     1.0000 0.44898  0.55316  0.29066  Biso   1.000  C
  C509     1.0000 0.44898  0.94684  0.79066  Biso   1.000  C
  C510     1.0000 0.05102  0.05316  0.29066  Biso   1.000  C
  C511     1.0000 0.94898  0.55316  0.20934  Biso   1.000  C
  C512     1.0000 0.55102  0.44684  0.70934  Biso   1.000  C
  H233     1.0000 0.53090  0.01810  0.21480  Biso   1.000  H
  H234     1.0000 0.96910  0.98190  0.71480  Biso   1.000  H
  H235     1.0000 0.03090  0.48190  0.78520  Biso   1.000  H
  H236     1.0000 0.46910  0.51810  0.28520  Biso   1.000  H
  H237     1.0000 0.46910  0.98190  0.78520  Biso   1.000  H
  H238     1.0000 0.03090  0.01810  0.28520  Biso   1.000  H
  H239     1.0000 0.96910  0.51810  0.21480  Biso   1.000  H
  H240     1.0000 0.53090  0.48190  0.71480  Biso   1.000  H
  C513     1.0000 0.54949  0.07079  0.18376  Biso   1.000  C
  C514     1.0000 0.95051  0.92921  0.68376  Biso   1.000  C
  C515     1.0000 0.04949  0.42921  0.81624  Biso   1.000  C
  C516     1.0000 0.45051  0.57079  0.31624  Biso   1.000  C
  C517     1.0000 0.45051  0.92921  0.81624  Biso   1.000  C
  C518     1.0000 0.04949  0.07079  0.31624  Biso   1.000  C
  C519     1.0000 0.95051  0.57079  0.18376  Biso   1.000  C
  C520     1.0000 0.54949  0.42921  0.68376  Biso   1.000  C
  C521     1.0000 0.51981  0.03306  0.16593  Biso   1.000  C
  C522     1.0000 0.98019  0.96694  0.66593  Biso   1.000  C
  C523     1.0000 0.01981  0.46694  0.83407  Biso   1.000  C
  C524     1.0000 0.48019  0.53306  0.33407  Biso   1.000  C
  C525     1.0000 0.48019  0.96694  0.83407  Biso   1.000  C
  C526     1.0000 0.01981  0.03306  0.33407  Biso   1.000  C
  C527     1.0000 0.98019  0.53306  0.16593  Biso   1.000  C
  C528     1.0000 0.51981  0.46694  0.66593  Biso   1.000  C
  N57      1.0000 0.49766  0.99936  0.15248  Biso   1.000  N
  N58      1.0000 0.00234  0.00064  0.65248  Biso   1.000  N
  N59      1.0000 0.99766  0.50064  0.84752  Biso   1.000  N
  N60      1.0000 0.50234  0.49936  0.34752  Biso   1.000  N
  N61      1.0000 0.50234  0.00064  0.84752  Biso   1.000  N
  N62      1.0000 0.99766  0.99936  0.34752  Biso   1.000  N
  N63      1.0000 0.00234  0.49936  0.15248  Biso   1.000  N
  N64      1.0000 0.49766  0.50064  0.65248  Biso   1.000  N
  C529     1.0000 0.57677  0.12384  0.17614  Biso   1.000  C
  C530     1.0000 0.92323  0.87616  0.67614  Biso   1.000  C
  C531     1.0000 0.07677  0.37616  0.82386  Biso   1.000  C
  C532     1.0000 0.42323  0.62384  0.32386  Biso   1.000  C
  C533     1.0000 0.42323  0.87616  0.82386  Biso   1.000  C
  C534     1.0000 0.07677  0.12384  0.32386  Biso   1.000  C
  C535     1.0000 0.92323  0.62384  0.17614  Biso   1.000  C
  C536     1.0000 0.57677  0.37616  0.67614  Biso   1.000  C
  H241     1.0000 0.57400  0.13710  0.15900  Biso   1.000  H
  H242     1.0000 0.92600  0.86290  0.65900  Biso   1.000  H
  H243     1.0000 0.07400  0.36290  0.84100  Biso   1.000  H
  H244     1.0000 0.42600  0.63710  0.34100  Biso   1.000  H
  H245     1.0000 0.42600  0.86290  0.84100  Biso   1.000  H
  H246     1.0000 0.07400  0.13710  0.34100  Biso   1.000  H
  H247     1.0000 0.92600  0.63710  0.15900  Biso   1.000  H
  H248     1.0000 0.57400  0.36290  0.65900  Biso   1.000  H
  C537     1.0000 0.60787  0.15718  0.19351  Biso   1.000  C
  C538     1.0000 0.89213  0.84282  0.69351  Biso   1.000  C
  C539     1.0000 0.10787  0.34282  0.80649  Biso   1.000  C
  C540     1.0000 0.39213  0.65718  0.30649  Biso   1.000  C
  C541     1.0000 0.39213  0.84282  0.80649  Biso   1.000  C
  C542     1.0000 0.10787  0.15718  0.30649  Biso   1.000  C
  C543     1.0000 0.89213  0.65718  0.19351  Biso   1.000  C
  C544     1.0000 0.60787  0.34282  0.69351  Biso   1.000  C
  H249     1.0000 0.62710  0.19280  0.18810  Biso   1.000  H
  H250     1.0000 0.87290  0.80720  0.68810  Biso   1.000  H
  H251     1.0000 0.12710  0.30720  0.81190  Biso   1.000  H
  H252     1.0000 0.37290  0.69280  0.31190  Biso   1.000  H
  H253     1.0000 0.37290  0.80720  0.81190  Biso   1.000  H
  H254     1.0000 0.12710  0.19280  0.31190  Biso   1.000  H
  H255     1.0000 0.87290  0.69280  0.18810  Biso   1.000  H
  H256     1.0000 0.62710  0.30720  0.68810  Biso   1.000  H
  C545     1.0000 0.74295  0.12767  0.17609  Biso   1.000  C
  C546     1.0000 0.75705  0.87233  0.67609  Biso   1.000  C
  C547     1.0000 0.24295  0.37233  0.82391  Biso   1.000  C
  C548     1.0000 0.25705  0.62767  0.32391  Biso   1.000  C
  C549     1.0000 0.25705  0.87233  0.82391  Biso   1.000  C
  C550     1.0000 0.24295  0.12767  0.32391  Biso   1.000  C
  C551     1.0000 0.75705  0.62767  0.17609  Biso   1.000  C
  C552     1.0000 0.74295  0.37233  0.67609  Biso   1.000  C
  C553     1.0000 0.72050  0.07923  0.19032  Biso   1.000  C
  C554     1.0000 0.77950  0.92077  0.69032  Biso   1.000  C
  C555     1.0000 0.22050  0.42077  0.80968  Biso   1.000  C
  C556     1.0000 0.27950  0.57923  0.30968  Biso   1.000  C
  C557     1.0000 0.27950  0.92077  0.80968  Biso   1.000  C
  C558     1.0000 0.22050  0.07923  0.30968  Biso   1.000  C
  C559     1.0000 0.77950  0.57923  0.19032  Biso   1.000  C
  C560     1.0000 0.72050  0.42077  0.69032  Biso   1.000  C
  H257     1.0000 0.72310  0.08010  0.20830  Biso   1.000  H
  H258     1.0000 0.77690  0.91990  0.70830  Biso   1.000  H
  H259     1.0000 0.22310  0.41990  0.79170  Biso   1.000  H
  H260     1.0000 0.27690  0.58010  0.29170  Biso   1.000  H
  H261     1.0000 0.27690  0.91990  0.79170  Biso   1.000  H
  H262     1.0000 0.22310  0.08010  0.29170  Biso   1.000  H
  H263     1.0000 0.77690  0.58010  0.20830  Biso   1.000  H
  H264     1.0000 0.72310  0.41990  0.70830  Biso   1.000  H
  C561     1.0000 0.69494  0.03080  0.17854  Biso   1.000  C
  C562     1.0000 0.80506  0.96920  0.67854  Biso   1.000  C
  C563     1.0000 0.19494  0.46920  0.82146  Biso   1.000  C
  C564     1.0000 0.30506  0.53080  0.32146  Biso   1.000  C
  C565     1.0000 0.30506  0.96920  0.82146  Biso   1.000  C
  C566     1.0000 0.19494  0.03080  0.32146  Biso   1.000  C
  C567     1.0000 0.80506  0.53080  0.17854  Biso   1.000  C
  C568     1.0000 0.69494  0.46920  0.67854  Biso   1.000  C
  H265     1.0000 0.67960  0.99840  0.18830  Biso   1.000  H
  H266     1.0000 0.82040  0.00160  0.68830  Biso   1.000  H
  H267     1.0000 0.17960  0.50160  0.81170  Biso   1.000  H
  H268     1.0000 0.32040  0.49840  0.31170  Biso   1.000  H
  H269     1.0000 0.32040  0.00160  0.81170  Biso   1.000  H
  H270     1.0000 0.17960  0.99840  0.31170  Biso   1.000  H
  H271     1.0000 0.82040  0.49840  0.18830  Biso   1.000  H
  H272     1.0000 0.67960  0.50160  0.68830  Biso   1.000  H
  C569     1.0000 0.69167  0.02957  0.15220  Biso   1.000  C
  C570     1.0000 0.80833  0.97043  0.65220  Biso   1.000  C
  C571     1.0000 0.19167  0.47043  0.84780  Biso   1.000  C
  C572     1.0000 0.30833  0.52957  0.34780  Biso   1.000  C
  C573     1.0000 0.30833  0.97043  0.84780  Biso   1.000  C
  C574     1.0000 0.19167  0.02957  0.34780  Biso   1.000  C
  C575     1.0000 0.80833  0.52957  0.15220  Biso   1.000  C
  C576     1.0000 0.69167  0.47043  0.65220  Biso   1.000  C
  C577     1.0000 0.66221  0.98063  0.13963  Biso   1.000  C
  C578     1.0000 0.83779  0.01937  0.63963  Biso   1.000  C
  C579     1.0000 0.16221  0.51937  0.86037  Biso   1.000  C
  C580     1.0000 0.33779  0.48063  0.36037  Biso   1.000  C
  C581     1.0000 0.33779  0.01937  0.86037  Biso   1.000  C
  C582     1.0000 0.16221  0.98063  0.36037  Biso   1.000  C
  C583     1.0000 0.83779  0.48063  0.13963  Biso   1.000  C
  C584     1.0000 0.66221  0.51937  0.63963  Biso   1.000  C
  N65      1.0000 0.63745  0.94262  0.12952  Biso   1.000  N
  N66      1.0000 0.86255  0.05738  0.62952  Biso   1.000  N
  N67      1.0000 0.13745  0.55738  0.87048  Biso   1.000  N
  N68      1.0000 0.36255  0.44262  0.37048  Biso   1.000  N
  N69      1.0000 0.36255  0.05738  0.87048  Biso   1.000  N
  N70      1.0000 0.13745  0.94262  0.37048  Biso   1.000  N
  N71      1.0000 0.86255  0.44262  0.12952  Biso   1.000  N
  N72      1.0000 0.63745  0.55738  0.62952  Biso   1.000  N
  C585     1.0000 0.71616  0.07634  0.13756  Biso   1.000  C
  C586     1.0000 0.78384  0.92366  0.63756  Biso   1.000  C
  C587     1.0000 0.21616  0.42366  0.86244  Biso   1.000  C
  C588     1.0000 0.28384  0.57634  0.36244  Biso   1.000  C
  C589     1.0000 0.28384  0.92366  0.86244  Biso   1.000  C
  C590     1.0000 0.21616  0.07634  0.36244  Biso   1.000  C
  C591     1.0000 0.78384  0.57634  0.13756  Biso   1.000  C
  C592     1.0000 0.71616  0.42366  0.63756  Biso   1.000  C
  H273     1.0000 0.71460  0.07470  0.11950  Biso   1.000  H
  H274     1.0000 0.78540  0.92530  0.61950  Biso   1.000  H
  H275     1.0000 0.21460  0.42530  0.88050  Biso   1.000  H
  H276     1.0000 0.28540  0.57470  0.38050  Biso   1.000  H
  H277     1.0000 0.28540  0.92530  0.88050  Biso   1.000  H
  H278     1.0000 0.21460  0.07470  0.38050  Biso   1.000  H
  H279     1.0000 0.78540  0.57470  0.11950  Biso   1.000  H
  H280     1.0000 0.71460  0.42530  0.61950  Biso   1.000  H
  C593     1.0000 0.74208  0.12389  0.14930  Biso   1.000  C
  C594     1.0000 0.75792  0.87611  0.64930  Biso   1.000  C
  C595     1.0000 0.24208  0.37611  0.85070  Biso   1.000  C
  C596     1.0000 0.25792  0.62389  0.35070  Biso   1.000  C
  C597     1.0000 0.25792  0.87611  0.85070  Biso   1.000  C
  C598     1.0000 0.24208  0.12389  0.35070  Biso   1.000  C
  C599     1.0000 0.75792  0.62389  0.14930  Biso   1.000  C
  C600     1.0000 0.74208  0.37611  0.64930  Biso   1.000  C
  H281     1.0000 0.75970  0.15470  0.13940  Biso   1.000  H
  H282     1.0000 0.74030  0.84530  0.63940  Biso   1.000  H
  H283     1.0000 0.25970  0.34530  0.86060  Biso   1.000  H
  H284     1.0000 0.24030  0.65470  0.36060  Biso   1.000  H
  H285     1.0000 0.24030  0.84530  0.86060  Biso   1.000  H
  H286     1.0000 0.25970  0.15470  0.36060  Biso   1.000  H
  H287     1.0000 0.74030  0.65470  0.13940  Biso   1.000  H
  H288     1.0000 0.75970  0.34530  0.63940  Biso   1.000  H
  C601     1.0000 0.81209  0.21786  0.17731  Biso   1.000  C
  C602     1.0000 0.68791  0.78214  0.67731  Biso   1.000  C
  C603     1.0000 0.31209  0.28214  0.82269  Biso   1.000  C
  C604     1.0000 0.18791  0.71786  0.32269  Biso   1.000  C
  C605     1.0000 0.18791  0.78214  0.82269  Biso   1.000  C
  C606     1.0000 0.31209  0.21786  0.32269  Biso   1.000  C
  C607     1.0000 0.68791  0.71786  0.17731  Biso   1.000  C
  C608     1.0000 0.81209  0.28214  0.67731  Biso   1.000  C
  C609     1.0000 0.86074  0.19108  0.16746  Biso   1.000  C
  C610     1.0000 0.63926  0.80892  0.66746  Biso   1.000  C
  C611     1.0000 0.36074  0.30892  0.83254  Biso   1.000  C
  C612     1.0000 0.13926  0.69108  0.33254  Biso   1.000  C
  C613     1.0000 0.13926  0.80892  0.83254  Biso   1.000  C
  C614     1.0000 0.36074  0.19108  0.33254  Biso   1.000  C
  C615     1.0000 0.63926  0.69108  0.16746  Biso   1.000  C
  C616     1.0000 0.86074  0.30892  0.66746  Biso   1.000  C
  H289     1.0000 0.86400  0.14810  0.16730  Biso   1.000  H
  H290     1.0000 0.63600  0.85190  0.66730  Biso   1.000  H
  H291     1.0000 0.36400  0.35190  0.83270  Biso   1.000  H
  H292     1.0000 0.13600  0.64810  0.33270  Biso   1.000  H
  H293     1.0000 0.13600  0.85190  0.83270  Biso   1.000  H
  H294     1.0000 0.36400  0.14810  0.33270  Biso   1.000  H
  H295     1.0000 0.63600  0.64810  0.16730  Biso   1.000  H
  H296     1.0000 0.86400  0.35190  0.66730  Biso   1.000  H
  C617     1.0000 0.90485  0.22637  0.15787  Biso   1.000  C
  C618     1.0000 0.59515  0.77363  0.65787  Biso   1.000  C
  C619     1.0000 0.40485  0.27363  0.84213  Biso   1.000  C
  C620     1.0000 0.09515  0.72637  0.34213  Biso   1.000  C
  C621     1.0000 0.09515  0.77363  0.84213  Biso   1.000  C
  C622     1.0000 0.40485  0.22637  0.34213  Biso   1.000  C
  C623     1.0000 0.59515  0.72637  0.15787  Biso   1.000  C
  C624     1.0000 0.90485  0.27363  0.65787  Biso   1.000  C
  H297     1.0000 0.93890  0.20800  0.15180  Biso   1.000  H
  H298     1.0000 0.56110  0.79200  0.65180  Biso   1.000  H
  H299     1.0000 0.43890  0.29200  0.84820  Biso   1.000  H
  H300     1.0000 0.06110  0.70800  0.34820  Biso   1.000  H
  H301     1.0000 0.06110  0.79200  0.84820  Biso   1.000  H
  H302     1.0000 0.43890  0.20800  0.34820  Biso   1.000  H
  H303     1.0000 0.56110  0.70800  0.15180  Biso   1.000  H
  H304     1.0000 0.93890  0.29200  0.65180  Biso   1.000  H
  C625     1.0000 0.89832  0.28955  0.15726  Biso   1.000  C
  C626     1.0000 0.60168  0.71045  0.65726  Biso   1.000  C
  C627     1.0000 0.39832  0.21045  0.84274  Biso   1.000  C
  C628     1.0000 0.10168  0.78955  0.34274  Biso   1.000  C
  C629     1.0000 0.10168  0.71045  0.84274  Biso   1.000  C
  C630     1.0000 0.39832  0.28955  0.34274  Biso   1.000  C
  C631     1.0000 0.60168  0.78955  0.15726  Biso   1.000  C
  C632     1.0000 0.89832  0.21045  0.65726  Biso   1.000  C
  C633     1.0000 0.94403  0.32746  0.14860  Biso   1.000  C
  C634     1.0000 0.55597  0.67254  0.64860  Biso   1.000  C
  C635     1.0000 0.44403  0.17254  0.85140  Biso   1.000  C
  C636     1.0000 0.05597  0.82746  0.35140  Biso   1.000  C
  C637     1.0000 0.05597  0.67254  0.85140  Biso   1.000  C
  C638     1.0000 0.44403  0.32746  0.35140  Biso   1.000  C
  C639     1.0000 0.55597  0.82746  0.14860  Biso   1.000  C
  C640     1.0000 0.94403  0.17254  0.64860  Biso   1.000  C
  N73      1.0000 0.97872  0.36053  0.14212  Biso   1.000  N
  N74      1.0000 0.52128  0.63947  0.64212  Biso   1.000  N
  N75      1.0000 0.47872  0.13947  0.85788  Biso   1.000  N
  N76      1.0000 0.02128  0.86053  0.35788  Biso   1.000  N
  N77      1.0000 0.02128  0.63947  0.85788  Biso   1.000  N
  N78      1.0000 0.47872  0.36053  0.35788  Biso   1.000  N
  N79      1.0000 0.52128  0.86053  0.14212  Biso   1.000  N
  N80      1.0000 0.97872  0.13947  0.64212  Biso   1.000  N
  C641     1.0000 0.84829  0.31668  0.16632  Biso   1.000  C
  C642     1.0000 0.65171  0.68332  0.66632  Biso   1.000  C
  C643     1.0000 0.34829  0.18332  0.83368  Biso   1.000  C
  C644     1.0000 0.15171  0.81668  0.33368  Biso   1.000  C
  C645     1.0000 0.15171  0.68332  0.83368  Biso   1.000  C
  C646     1.0000 0.34829  0.31668  0.33368  Biso   1.000  C
  C647     1.0000 0.65171  0.81668  0.16632  Biso   1.000  C
  C648     1.0000 0.84829  0.18332  0.66632  Biso   1.000  C
  H305     1.0000 0.84340  0.35940  0.16540  Biso   1.000  H
  H306     1.0000 0.65660  0.64060  0.66540  Biso   1.000  H
  H307     1.0000 0.34340  0.14060  0.83460  Biso   1.000  H
  H308     1.0000 0.15660  0.85940  0.33460  Biso   1.000  H
  H309     1.0000 0.15660  0.64060  0.83460  Biso   1.000  H
  H310     1.0000 0.34340  0.35940  0.33460  Biso   1.000  H
  H311     1.0000 0.65660  0.85940  0.16540  Biso   1.000  H
  H312     1.0000 0.84340  0.14060  0.66540  Biso   1.000  H
  C649     1.0000 0.80635  0.28071  0.17662  Biso   1.000  C
  C650     1.0000 0.69365  0.71929  0.67662  Biso   1.000  C
  C651     1.0000 0.30635  0.21929  0.82338  Biso   1.000  C
  C652     1.0000 0.19365  0.78071  0.32338  Biso   1.000  C
  C653     1.0000 0.19365  0.71929  0.82338  Biso   1.000  C
  C654     1.0000 0.30635  0.28071  0.32338  Biso   1.000  C
  C655     1.0000 0.69365  0.78071  0.17662  Biso   1.000  C
  C656     1.0000 0.80635  0.21929  0.67662  Biso   1.000  C
  H313     1.0000 0.77300  0.29900  0.18340  Biso   1.000  H
  H314     1.0000 0.72700  0.70100  0.68340  Biso   1.000  H
  H315     1.0000 0.27300  0.20100  0.81660  Biso   1.000  H
  H316     1.0000 0.22700  0.79900  0.31660  Biso   1.000  H
  H317     1.0000 0.22700  0.70100  0.81660  Biso   1.000  H
  H318     1.0000 0.27300  0.29900  0.31660  Biso   1.000  H
  H319     1.0000 0.72700  0.79900  0.18340  Biso   1.000  H
  H320     1.0000 0.77300  0.20100  0.68340  Biso   1.000  H
  C657     1.0000 0.82023  0.31441  0.23878  Biso   1.000  C
  C658     1.0000 0.67977  0.68559  0.73878  Biso   1.000  C
  C659     1.0000 0.32023  0.18559  0.76122  Biso   1.000  C
  C660     1.0000 0.17977  0.81441  0.26122  Biso   1.000  C
  C661     1.0000 0.17977  0.68559  0.76122  Biso   1.000  C
  C662     1.0000 0.32023  0.31441  0.26122  Biso   1.000  C
  C663     1.0000 0.67977  0.81441  0.23878  Biso   1.000  C
  C664     1.0000 0.82023  0.18559  0.73878  Biso   1.000  C
  C665     1.0000 0.86591  0.27664  0.23157  Biso   1.000  C
  C666     1.0000 0.63409  0.72336  0.73157  Biso   1.000  C
  C667     1.0000 0.36591  0.22336  0.76843  Biso   1.000  C
  C668     1.0000 0.13409  0.77664  0.26843  Biso   1.000  C
  C669     1.0000 0.13409  0.72336  0.76843  Biso   1.000  C
  C670     1.0000 0.36591  0.27664  0.26843  Biso   1.000  C
  C671     1.0000 0.63409  0.77664  0.23157  Biso   1.000  C
  C672     1.0000 0.86591  0.22336  0.73157  Biso   1.000  C
  H321     1.0000 0.86110  0.23390  0.23130  Biso   1.000  H
  H322     1.0000 0.63890  0.76610  0.73130  Biso   1.000  H
  H323     1.0000 0.36110  0.26610  0.76870  Biso   1.000  H
  H324     1.0000 0.13890  0.73390  0.26870  Biso   1.000  H
  H325     1.0000 0.13890  0.76610  0.76870  Biso   1.000  H
  H326     1.0000 0.36110  0.23390  0.26870  Biso   1.000  H
  H327     1.0000 0.63890  0.73390  0.23130  Biso   1.000  H
  H328     1.0000 0.86110  0.26610  0.73130  Biso   1.000  H
  C673     1.0000 0.91789  0.30182  0.22483  Biso   1.000  C
  C674     1.0000 0.58211  0.69818  0.72483  Biso   1.000  C
  C675     1.0000 0.41789  0.19818  0.77517  Biso   1.000  C
  C676     1.0000 0.08211  0.80182  0.27517  Biso   1.000  C
  C677     1.0000 0.08211  0.69818  0.77517  Biso   1.000  C
  C678     1.0000 0.41789  0.30182  0.27517  Biso   1.000  C
  C679     1.0000 0.58211  0.80182  0.22483  Biso   1.000  C
  C680     1.0000 0.91789  0.19818  0.72483  Biso   1.000  C
  H329     1.0000 0.94880  0.27650  0.22000  Biso   1.000  H
  H330     1.0000 0.55120  0.72350  0.72000  Biso   1.000  H
  H331     1.0000 0.44880  0.22350  0.78000  Biso   1.000  H
  H332     1.0000 0.05120  0.77650  0.28000  Biso   1.000  H
  H333     1.0000 0.05120  0.72350  0.78000  Biso   1.000  H
  H334     1.0000 0.44880  0.27650  0.28000  Biso   1.000  H
  H335     1.0000 0.55120  0.77650  0.22000  Biso   1.000  H
  H336     1.0000 0.94880  0.22350  0.72000  Biso   1.000  H
  C681     1.0000 0.92429  0.36378  0.22525  Biso   1.000  C
  C682     1.0000 0.57571  0.63622  0.72525  Biso   1.000  C
  C683     1.0000 0.42429  0.13622  0.77475  Biso   1.000  C
  C684     1.0000 0.07571  0.86378  0.27475  Biso   1.000  C
  C685     1.0000 0.07571  0.63622  0.77475  Biso   1.000  C
  C686     1.0000 0.42429  0.36378  0.27475  Biso   1.000  C
  C687     1.0000 0.57571  0.86378  0.22525  Biso   1.000  C
  C688     1.0000 0.92429  0.13622  0.72525  Biso   1.000  C
  C689     1.0000 0.97717  0.39180  0.21844  Biso   1.000  C
  C690     1.0000 0.52283  0.60820  0.71844  Biso   1.000  C
  C691     1.0000 0.47717  0.10820  0.78156  Biso   1.000  C
  C692     1.0000 0.02283  0.89180  0.28156  Biso   1.000  C
  C693     1.0000 0.02283  0.60820  0.78156  Biso   1.000  C
  C694     1.0000 0.47717  0.39180  0.28156  Biso   1.000  C
  C695     1.0000 0.52283  0.89180  0.21844  Biso   1.000  C
  C696     1.0000 0.97717  0.10820  0.71844  Biso   1.000  C
  N81      1.0000 0.01930  0.41701  0.21240  Biso   1.000  N
  N82      1.0000 0.48070  0.58299  0.71240  Biso   1.000  N
  N83      1.0000 0.51930  0.08299  0.78760  Biso   1.000  N
  N84      1.0000 0.98070  0.91701  0.28760  Biso   1.000  N
  N85      1.0000 0.98070  0.58299  0.78760  Biso   1.000  N
  N86      1.0000 0.51930  0.41701  0.28760  Biso   1.000  N
  N87      1.0000 0.48070  0.91701  0.21240  Biso   1.000  N
  N88      1.0000 0.01930  0.08299  0.71240  Biso   1.000  N
  C697     1.0000 0.87948  0.40235  0.23234  Biso   1.000  C
  C698     1.0000 0.62052  0.59765  0.73234  Biso   1.000  C
  C699     1.0000 0.37948  0.09765  0.76766  Biso   1.000  C
  C700     1.0000 0.12052  0.90235  0.26766  Biso   1.000  C
  C701     1.0000 0.12052  0.59765  0.76766  Biso   1.000  C
  C702     1.0000 0.37948  0.40235  0.26766  Biso   1.000  C
  C703     1.0000 0.62052  0.90235  0.23234  Biso   1.000  C
  C704     1.0000 0.87948  0.09765  0.73234  Biso   1.000  C
  H337     1.0000 0.88430  0.44510  0.23220  Biso   1.000  H
  H338     1.0000 0.61570  0.55490  0.73220  Biso   1.000  H
  H339     1.0000 0.38430  0.05490  0.76780  Biso   1.000  H
  H340     1.0000 0.11570  0.94510  0.26780  Biso   1.000  H
  H341     1.0000 0.11570  0.55490  0.76780  Biso   1.000  H
  H342     1.0000 0.38430  0.44510  0.26780  Biso   1.000  H
  H343     1.0000 0.61570  0.94510  0.23220  Biso   1.000  H
  H344     1.0000 0.88430  0.05490  0.73220  Biso   1.000  H
  C705     1.0000 0.82776  0.37668  0.23962  Biso   1.000  C
  C706     1.0000 0.67224  0.62332  0.73962  Biso   1.000  C
  C707     1.0000 0.32776  0.12332  0.76038  Biso   1.000  C
  C708     1.0000 0.17224  0.87668  0.26038  Biso   1.000  C
  C709     1.0000 0.17224  0.62332  0.76038  Biso   1.000  C
  C710     1.0000 0.32776  0.37668  0.26038  Biso   1.000  C
  C711     1.0000 0.67224  0.87668  0.23962  Biso   1.000  C
  C712     1.0000 0.82776  0.12332  0.73962  Biso   1.000  C
  H345     1.0000 0.79750  0.40200  0.24520  Biso   1.000  H
  H346     1.0000 0.70250  0.59800  0.74520  Biso   1.000  H
  H347     1.0000 0.29750  0.09800  0.75480  Biso   1.000  H
  H348     1.0000 0.20250  0.90200  0.25480  Biso   1.000  H
  H349     1.0000 0.20250  0.59800  0.75480  Biso   1.000  H
  H350     1.0000 0.29750  0.40200  0.25480  Biso   1.000  H
  H351     1.0000 0.70250  0.90200  0.24520  Biso   1.000  H
  H352     1.0000 0.79750  0.09800  0.74520  Biso   1.000  H
  C713     1.0000 0.73118  0.31538  0.26645  Biso   1.000  C
  C714     1.0000 0.76882  0.68462  0.76645  Biso   1.000  C
  C715     1.0000 0.23118  0.18462  0.73355  Biso   1.000  C
  C716     1.0000 0.26882  0.81538  0.23355  Biso   1.000  C
  C717     1.0000 0.26882  0.68462  0.73355  Biso   1.000  C
  C718     1.0000 0.23118  0.31538  0.23355  Biso   1.000  C
  C719     1.0000 0.76882  0.81538  0.26645  Biso   1.000  C
  C720     1.0000 0.73118  0.18462  0.76645  Biso   1.000  C
  C721     1.0000 0.75721  0.33350  0.28884  Biso   1.000  C
  C722     1.0000 0.74279  0.66650  0.78884  Biso   1.000  C
  C723     1.0000 0.25721  0.16650  0.71116  Biso   1.000  C
  C724     1.0000 0.24279  0.83350  0.21116  Biso   1.000  C
  C725     1.0000 0.24279  0.66650  0.71116  Biso   1.000  C
  C726     1.0000 0.25721  0.33350  0.21116  Biso   1.000  C
  C727     1.0000 0.74279  0.83350  0.28884  Biso   1.000  C
  C728     1.0000 0.75721  0.16650  0.78884  Biso   1.000  C
  H353     1.0000 0.79740  0.32980  0.29060  Biso   1.000  H
  H354     1.0000 0.70260  0.67020  0.79060  Biso   1.000  H
  H355     1.0000 0.29740  0.17020  0.70940  Biso   1.000  H
  H356     1.0000 0.20260  0.82980  0.20940  Biso   1.000  H
  H357     1.0000 0.20260  0.67020  0.70940  Biso   1.000  H
  H358     1.0000 0.29740  0.32980  0.20940  Biso   1.000  H
  H359     1.0000 0.70260  0.82980  0.29060  Biso   1.000  H
  H360     1.0000 0.79740  0.17020  0.79060  Biso   1.000  H
  C729     1.0000 0.72530  0.35691  0.30874  Biso   1.000  C
  C730     1.0000 0.77470  0.64309  0.80874  Biso   1.000  C
  C731     1.0000 0.22530  0.14309  0.69126  Biso   1.000  C
  C732     1.0000 0.27470  0.85691  0.19126  Biso   1.000  C
  C733     1.0000 0.27470  0.64309  0.69126  Biso   1.000  C
  C734     1.0000 0.22530  0.35691  0.19126  Biso   1.000  C
  C735     1.0000 0.77470  0.85691  0.30874  Biso   1.000  C
  C736     1.0000 0.72530  0.14309  0.80874  Biso   1.000  C
  H361     1.0000 0.74340  0.36910  0.32410  Biso   1.000  H
  H362     1.0000 0.75660  0.63090  0.82410  Biso   1.000  H
  H363     1.0000 0.24340  0.13090  0.67590  Biso   1.000  H
  H364     1.0000 0.25660  0.86910  0.17590  Biso   1.000  H
  H365     1.0000 0.25660  0.63090  0.67590  Biso   1.000  H
  H366     1.0000 0.24340  0.36910  0.17590  Biso   1.000  H
  H367     1.0000 0.75660  0.86910  0.32410  Biso   1.000  H
  H368     1.0000 0.74340  0.13090  0.82410  Biso   1.000  H
  C737     1.0000 0.66628  0.36229  0.30598  Biso   1.000  C
  C738     1.0000 0.83372  0.63771  0.80598  Biso   1.000  C
  C739     1.0000 0.16628  0.13771  0.69402  Biso   1.000  C
  C740     1.0000 0.33372  0.86229  0.19402  Biso   1.000  C
  C741     1.0000 0.33372  0.63771  0.69402  Biso   1.000  C
  C742     1.0000 0.16628  0.36229  0.19402  Biso   1.000  C
  C743     1.0000 0.83372  0.86229  0.30598  Biso   1.000  C
  C744     1.0000 0.66628  0.13771  0.80598  Biso   1.000  C
  C745     1.0000 0.63103  0.38414  0.32638  Biso   1.000  C
  C746     1.0000 0.86897  0.61586  0.82638  Biso   1.000  C
  C747     1.0000 0.13103  0.11586  0.67362  Biso   1.000  C
  C748     1.0000 0.36897  0.88414  0.17362  Biso   1.000  C
  C749     1.0000 0.36897  0.61586  0.67362  Biso   1.000  C
  C750     1.0000 0.13103  0.38414  0.17362  Biso   1.000  C
  C751     1.0000 0.86897  0.88414  0.32638  Biso   1.000  C
  C752     1.0000 0.63103  0.11586  0.82638  Biso   1.000  C
  N89      1.0000 0.60146  0.40126  0.34196  Biso   1.000  N
  N90      1.0000 0.89854  0.59874  0.84196  Biso   1.000  N
  N91      1.0000 0.10146  0.09874  0.65804  Biso   1.000  N
  N92      1.0000 0.39854  0.90126  0.15804  Biso   1.000  N
  N93      1.0000 0.39854  0.59874  0.65804  Biso   1.000  N
  N94      1.0000 0.10146  0.40126  0.15804  Biso   1.000  N
  N95      1.0000 0.89854  0.90126  0.34196  Biso   1.000  N
  N96      1.0000 0.60146  0.09874  0.84196  Biso   1.000  N
  C753     1.0000 0.63896  0.34484  0.28324  Biso   1.000  C
  C754     1.0000 0.86104  0.65516  0.78324  Biso   1.000  C
  C755     1.0000 0.13896  0.15516  0.71676  Biso   1.000  C
  C756     1.0000 0.36104  0.84484  0.21676  Biso   1.000  C
  C757     1.0000 0.36104  0.65516  0.71676  Biso   1.000  C
  C758     1.0000 0.13896  0.34484  0.21676  Biso   1.000  C
  C759     1.0000 0.86104  0.84484  0.28324  Biso   1.000  C
  C760     1.0000 0.63896  0.15516  0.78324  Biso   1.000  C
  H369     1.0000 0.59890  0.34900  0.28130  Biso   1.000  H
  H370     1.0000 0.90110  0.65100  0.78130  Biso   1.000  H
  H371     1.0000 0.09890  0.15100  0.71870  Biso   1.000  H
  H372     1.0000 0.40110  0.84900  0.21870  Biso   1.000  H
  H373     1.0000 0.40110  0.65100  0.71870  Biso   1.000  H
  H374     1.0000 0.09890  0.34900  0.21870  Biso   1.000  H
  H375     1.0000 0.90110  0.84900  0.28130  Biso   1.000  H
  H376     1.0000 0.59890  0.15100  0.78130  Biso   1.000  H
  C761     1.0000 0.67205  0.32143  0.26381  Biso   1.000  C
  C762     1.0000 0.82795  0.67857  0.76381  Biso   1.000  C
  C763     1.0000 0.17205  0.17857  0.73619  Biso   1.000  C
  C764     1.0000 0.32795  0.82143  0.23619  Biso   1.000  C
  C765     1.0000 0.32795  0.67857  0.73619  Biso   1.000  C
  C766     1.0000 0.17205  0.32143  0.23619  Biso   1.000  C
  C767     1.0000 0.82795  0.82143  0.26381  Biso   1.000  C
  C768     1.0000 0.67205  0.17857  0.76381  Biso   1.000  C
  H377     1.0000 0.65430  0.30930  0.24840  Biso   1.000  H
  H378     1.0000 0.84570  0.69070  0.74840  Biso   1.000  H
  H379     1.0000 0.15430  0.19070  0.75160  Biso   1.000  H
  H380     1.0000 0.34570  0.80930  0.25160  Biso   1.000  H
  H381     1.0000 0.34570  0.69070  0.75160  Biso   1.000  H
  H382     1.0000 0.15430  0.30930  0.25160  Biso   1.000  H
  H383     1.0000 0.84570  0.80930  0.24840  Biso   1.000  H
  H384     1.0000 0.65430  0.19070  0.74840  Biso   1.000  H
  B1       1.0000 0.52500  0.15700  0.03363  Biso   1.000  B
  B2       1.0000 0.97500  0.84300  0.53363  Biso   1.000  B
  B3       1.0000 0.02500  0.34300  0.96637  Biso   1.000  B
  B4       1.0000 0.47500  0.65700  0.46637  Biso   1.000  B
  B5       1.0000 0.47500  0.84300  0.96637  Biso   1.000  B
  B6       1.0000 0.02500  0.15700  0.46637  Biso   1.000  B
  B7       1.0000 0.97500  0.65700  0.03363  Biso   1.000  B
  B8       1.0000 0.52500  0.34300  0.53363  Biso   1.000  B
  F1       1.0000 0.51320  0.19480  0.01446  Biso   1.000  F
  F2       1.0000 0.98680  0.80520  0.51446  Biso   1.000  F
  F3       1.0000 0.01320  0.30520  0.98554  Biso   1.000  F
  F4       1.0000 0.48680  0.69480  0.48554  Biso   1.000  F
  F5       1.0000 0.48680  0.80520  0.98554  Biso   1.000  F
  F6       1.0000 0.01320  0.19480  0.48554  Biso   1.000  F
  F7       1.0000 0.98680  0.69480  0.01446  Biso   1.000  F
  F8       1.0000 0.51320  0.30520  0.51446  Biso   1.000  F
  F9       1.0000 0.49612  0.10274  0.03035  Biso   1.000  F
  F10      1.0000 0.00388  0.89726  0.53035  Biso   1.000  F
  F11      1.0000 0.99612  0.39726  0.96965  Biso   1.000  F
  F12      1.0000 0.50388  0.60274  0.46965  Biso   1.000  F
  F13      1.0000 0.50388  0.89726  0.96965  Biso   1.000  F
  F14      1.0000 0.99612  0.10274  0.46965  Biso   1.000  F
  F15      1.0000 0.00388  0.60274  0.03035  Biso   1.000  F
  F16      1.0000 0.49612  0.39726  0.53035  Biso   1.000  F
  F17      1.0000 0.58373  0.14070  0.03563  Biso   1.000  F
  F18      1.0000 0.91627  0.85930  0.53563  Biso   1.000  F
  F19      1.0000 0.08373  0.35930  0.96437  Biso   1.000  F
  F20      1.0000 0.41627  0.64070  0.46437  Biso   1.000  F
  F21      1.0000 0.41627  0.85930  0.96437  Biso   1.000  F
  F22      1.0000 0.08373  0.14070  0.46437  Biso   1.000  F
  F23      1.0000 0.91627  0.64070  0.03563  Biso   1.000  F
  F24      1.0000 0.58373  0.35930  0.53563  Biso   1.000  F
  F25      1.0000 0.51194  0.18227  0.05717  Biso   1.000  F
  F26      1.0000 0.98806  0.81773  0.55717  Biso   1.000  F
  F27      1.0000 0.01194  0.31773  0.94283  Biso   1.000  F
  F28      1.0000 0.48806  0.68227  0.44283  Biso   1.000  F
  F29      1.0000 0.48806  0.81773  0.94283  Biso   1.000  F
  F30      1.0000 0.01194  0.18227  0.44283  Biso   1.000  F
  F31      1.0000 0.98806  0.68227  0.05717  Biso   1.000  F
  F32      1.0000 0.51194  0.31773  0.55717  Biso   1.000  F
  B9       1.0000 0.38190  0.36680  0.16342  Biso   1.000  B
  B10      1.0000 0.11810  0.63320  0.66342  Biso   1.000  B
  B11      1.0000 0.88190  0.13320  0.83658  Biso   1.000  B
  B12      1.0000 0.61810  0.86680  0.33658  Biso   1.000  B
  B13      1.0000 0.61810  0.63320  0.83658  Biso   1.000  B
  B14      1.0000 0.88190  0.36680  0.33658  Biso   1.000  B
  B15      1.0000 0.11810  0.86680  0.16342  Biso   1.000  B
  B16      1.0000 0.38190  0.13320  0.66342  Biso   1.000  B
  F33      1.0000 0.38590  0.40160  0.18422  Biso   1.000  F
  F34      1.0000 0.11410  0.59840  0.68422  Biso   1.000  F
  F35      1.0000 0.88590  0.09840  0.81578  Biso   1.000  F
  F36      1.0000 0.61410  0.90160  0.31578  Biso   1.000  F
  F37      1.0000 0.61410  0.59840  0.81578  Biso   1.000  F
  F38      1.0000 0.88590  0.40160  0.31578  Biso   1.000  F
  F39      1.0000 0.11410  0.90160  0.18422  Biso   1.000  F
  F40      1.0000 0.38590  0.09840  0.68422  Biso   1.000  F
  F41      1.0000 0.38020  0.30760  0.17086  Biso   1.000  F
  F42      1.0000 0.11980  0.69240  0.67086  Biso   1.000  F
  F43      1.0000 0.88020  0.19240  0.82914  Biso   1.000  F
  F44      1.0000 0.61980  0.80760  0.32914  Biso   1.000  F
  F45      1.0000 0.61980  0.69240  0.82914  Biso   1.000  F
  F46      1.0000 0.88020  0.30760  0.32914  Biso   1.000  F
  F47      1.0000 0.11980  0.80760  0.17086  Biso   1.000  F
  F48      1.0000 0.38020  0.19240  0.67086  Biso   1.000  F
  F49      1.0000 0.33020  0.38070  0.15026  Biso   1.000  F
  F50      1.0000 0.16980  0.61930  0.65026  Biso   1.000  F
  F51      1.0000 0.83020  0.11930  0.84974  Biso   1.000  F
  F52      1.0000 0.66980  0.88070  0.34974  Biso   1.000  F
  F53      1.0000 0.66980  0.61930  0.84974  Biso   1.000  F
  F54      1.0000 0.83020  0.38070  0.34974  Biso   1.000  F
  F55      1.0000 0.16980  0.88070  0.15026  Biso   1.000  F
  F56      1.0000 0.33020  0.11930  0.65026  Biso   1.000  F
  F57      1.0000 0.42890  0.37310  0.14622  Biso   1.000  F
  F58      1.0000 0.07110  0.62690  0.64622  Biso   1.000  F
  F59      1.0000 0.92890  0.12690  0.85378  Biso   1.000  F
  F60      1.0000 0.57110  0.87310  0.35378  Biso   1.000  F
  F61      1.0000 0.57110  0.62690  0.85378  Biso   1.000  F
  F62      1.0000 0.92890  0.37310  0.35378  Biso   1.000  F
  F63      1.0000 0.07110  0.87310  0.14622  Biso   1.000  F
  F64      1.0000 0.42890  0.12690  0.64622  Biso   1.000  F
  B17      1.0000 0.51850  0.54850  0.16210  Biso   1.000  B
  B18      1.0000 0.98150  0.45150  0.66210  Biso   1.000  B
  B19      1.0000 0.01850  0.95150  0.83790  Biso   1.000  B
  B20      1.0000 0.48150  0.04850  0.33790  Biso   1.000  B
  B21      1.0000 0.48150  0.45150  0.83790  Biso   1.000  B
  B22      1.0000 0.01850  0.54850  0.33790  Biso   1.000  B
  B23      1.0000 0.98150  0.04850  0.16210  Biso   1.000  B
  B24      1.0000 0.51850  0.95150  0.66210  Biso   1.000  B
  F65      1.0000 0.50980  0.60430  0.16220  Biso   1.000  F
  F66      1.0000 0.99020  0.39570  0.66220  Biso   1.000  F
  F67      1.0000 0.00980  0.89570  0.83780  Biso   1.000  F
  F68      1.0000 0.49020  0.10430  0.33780  Biso   1.000  F
  F69      1.0000 0.49020  0.39570  0.83780  Biso   1.000  F
  F70      1.0000 0.00980  0.60430  0.33780  Biso   1.000  F
  F71      1.0000 0.99020  0.10430  0.16220  Biso   1.000  F
  F72      1.0000 0.50980  0.89570  0.66220  Biso   1.000  F
  F73      1.0000 0.46770  0.53040  0.15100  Biso   1.000  F
  F74      1.0000 0.03230  0.46960  0.65100  Biso   1.000  F
  F75      1.0000 0.96770  0.96960  0.84900  Biso   1.000  F
  F76      1.0000 0.53230  0.03040  0.34900  Biso   1.000  F
  F77      1.0000 0.53230  0.46960  0.84900  Biso   1.000  F
  F78      1.0000 0.96770  0.53040  0.34900  Biso   1.000  F
  F79      1.0000 0.03230  0.03040  0.15100  Biso   1.000  F
  F80      1.0000 0.46770  0.96960  0.65100  Biso   1.000  F
  F81      1.0000 0.52810  0.51800  0.18410  Biso   1.000  F
  F82      1.0000 0.97190  0.48200  0.68410  Biso   1.000  F
  F83      1.0000 0.02810  0.98200  0.81590  Biso   1.000  F
  F84      1.0000 0.47190  0.01800  0.31590  Biso   1.000  F
  F85      1.0000 0.47190  0.48200  0.81590  Biso   1.000  F
  F86      1.0000 0.02810  0.51800  0.31590  Biso   1.000  F
  F87      1.0000 0.97190  0.01800  0.18410  Biso   1.000  F
  F88      1.0000 0.52810  0.98200  0.68410  Biso   1.000  F
  F89      1.0000 0.56360  0.54010  0.14660  Biso   1.000  F
  F90      1.0000 0.93640  0.45990  0.64660  Biso   1.000  F
  F91      1.0000 0.06360  0.95990  0.85340  Biso   1.000  F
  F92      1.0000 0.43640  0.04010  0.35340  Biso   1.000  F
  F93      1.0000 0.43640  0.45990  0.85340  Biso   1.000  F
  F94      1.0000 0.06360  0.54010  0.35340  Biso   1.000  F
  F95      1.0000 0.93640  0.04010  0.14660  Biso   1.000  F
  F96      1.0000 0.56360  0.95990  0.64660  Biso   1.000  F
